# coding=utf-8
# Kich ban 3.5 — BAN CAM-CLAY, dat yeu dung mo hinh Cam-Clay hieu chinh (thay
# Mohr-Coulomb) de so sanh ung xu deo mem hoa thuc te hon. Tham so tinh tu du
# lieu that KE (Cc,Cs,e0,PC_kPa,phi_CU tu SQLite lab_tests, symbol_tcvn IN
# CH/MH/CH-OH/MH-OH):
#   LAMBDA=0.31415 (=Cc/ln10)  KAPA=0.04309 (=Cs/ln10)  PORO(N)=0.66410 (=e0/(1+e0))
#   PRES_CRIT=32.53kPa (=PC/2)  M=0.5090 (tu phi_CU=13.57 deg, cong thuc
#   M=6sinphi/(3-sinphi))  MU=1277.78kPa (=Es/(2(1+nu)))
#
# CANH BAO VAT LY QUAN TRONG: self-weight dang TAT (quy uoc V1 toan du an — xem
# CLAUDE.md), nghia la ung suat ban dau P=0 KHAP NOI. Voi Mohr-Coulomb dieu nay
# chap nhan duoc (vat lieu khong phu thuoc lich su ung suat), nhung Cam-Clay LA
# mo hinh PHU THUOC ung suat ban dau — mat chay tai P=0,Q=0 gan nhu suy bien vi
# Pcr=32.5kPa rat thap. CHUA them buoc khoi tao K0 (viec lon, chua lam) — chay
# THU truoc de co bang chung thuc te (hoi tu duoc hay khong) truoc khi quyet
# dinh co can khoi tao K0 hay khong.

from code_aster.Commands import *

DEBUT(CODE="OUI", ERREUR=_F(ALARME="EXCEPTION"), DEBUG=_F(SDVERI="OUI"))

MA = LIRE_MAILLAGE(FORMAT="MED", UNITE=20)

MA = MODI_MAILLAGE(
    reuse=MA, MAILLAGE=MA,
    ORIE_PEAU=_F(GROUP_MA_PEAU=(
        "BASE", "SIDE_XMIN", "SIDE_XMAX", "SIDE_YMIN", "SIDE_YMAX",
        "TOP_SOIL_NEGX", "TOP_SOIL_POSX", "TOP_COLUMN_NEGX", "TOP_COLUMN_POSX",
    )),
)

MO = AFFE_MODELE(MAILLAGE=MA, AFFE=_F(TOUT="OUI", PHENOMENE="MECANIQUE", MODELISATION="3D"))

# ================== Vat lieu ==================
# RHO dung GAMMA HIEU DUNG (gamma' = gamma_sat - 9,81) — muc nuoc ngam mac dinh
# = cao do DINH COC (+0,8m, dung quy uoc toan du an — params_io.py
# water_table_elev = z_fill_top, xem CLAUDE.md). Vi mien tinh toan bat dau tu
# dung +0,8m (dinh dat dap = MNN), TOAN BO 3 lop deu nam duoi/tai MNN -> dung
# gamma' cho CA 3 lop dat + coc CDM (RHO chi dung cho buoc K0 trong luc, KHONG
# anh huong buoc chinh vi buoc do KHONG bat trong luc).
MAT_DAP = DEFI_MATERIAU(ELAS=_F(E=8000.0, NU=0.30, RHO=(19.0 - 9.81) / 9.81))
MAT_CUNG = DEFI_MATERIAU(ELAS=_F(E=27600.0, NU=0.35, RHO=(19.0 - 9.81) / 9.81))
MAT_COL = DEFI_MATERIAU(ELAS=_F(E=40000.0, NU=0.25, RHO=(18.0 - 9.81) / 9.81))
MAT_YEU = DEFI_MATERIAU(
    ELAS=_F(E=3450.0, NU=0.35, RHO=(15.291 - 9.81) / 9.81),
    # PRES_CRIT=300kPa (tang tu 32,53kPa that) + PTRAC=-20kPa (cho phep chiu KEO
    # NHE, gan bang luc dinh c=9,5kPa do tu thi nghiem cat phang that, nhan doi
    # lam bien an toan) — DIEU CHINH KY THUAT theo yeu cau nguoi dung (2026-08-28):
    # "muc tieu la tim chuyen vi ngang va noi luc, cac tham so khac co the gia
    # dinh". Loi COMPOR1_3 lap lai DUNG 1 phan tu (z=-1.92m, gan bien tai GD5)
    # bat ke tang Pcr — nghi van P bi am (keo cuc bo) tai vung tap trung ung
    # suat gan mep tai, PTRAC=0 khong dung duoc (mo hinh suy bien tai P=Ptrac=0).
    # Tim thay vi du that (ssnv160c.comm) dung PTRAC am — ap dung tuong tu.
    # KCAM tinh truc tiep tu dieu kien nu>0 trong R7.01.14 muc 6.2 Remarque 2
    # (cong thuc chinh xac doc tu anh trang 25, khong doan):
    #   nu = [3(1+e0)P- + 3*Kcam*kapa - 2*mu*kapa] / [6(1+e0)P- + 6*Kcam*kapa + 2*mu*kapa]
    # dieu kien nu>0 tuong duong P- > kapa*(2*mu - 3*Kcam) / (3*(1+e0)).
    # Voi KCAM=150 (thu truoc) nguong nay la +10,2 kPa — cac phan tu nong gan
    # bien tai GD5 (P-~9,5kPa tu K0) roi vao vung am trong luc lap -> loi
    # COMPOR1_3 lap lai (2 lan, 2 phan tu khac nhau z=-1,7..-1,9m). Tang KCAM=5000
    # dua nguong xuong P->-60kPa (du bien an toan cho moi dao dong ung suat cuc
    # bo do tai GD5/coc). PTRAC giu =0 (to hop don gian nhat R7.01.14 xac nhan
    # hop le voi Kcam>0 — tranh quan he mo ho giua Kcam/Ptrac am da gay loi
    # COMPOR1_42 o lan thu truoc). Day la tham so gia dinh de dat muc tieu hoi tu
    # theo chi dao nguoi dung (uu tien chuyen vi/noi luc coc hon la do chinh xac
    # tuyet doi cua Kcam vat ly).
    CAM_CLAY=_F(MU=1277.78, PORO=0.66410, LAMBDA=0.31415, KAPA=0.04309,
                M=0.5090, PRES_CRIT=300.0, KCAM=5000.0, PTRAC=0.0),
)

CHMAT = AFFE_MATERIAU(
    MAILLAGE=MA,
    AFFE=(
        _F(GROUP_MA="SOIL_dat_dap", MATER=MAT_DAP),
        _F(GROUP_MA="SOIL_lop_cung", MATER=MAT_CUNG),
        _F(GROUP_MA="CDM_COLUMN", MATER=MAT_COL),
        _F(GROUP_MA="SOIL_dat_yeu", MATER=MAT_YEU),
    ),
)

# ================== Dieu kien bien (giong CalculiX *BOUNDARY) ==================
DEPL = AFFE_CHAR_CINE(
    MODELE=MO,
    MECA_IMPO=(
        _F(GROUP_MA="BASE", DX=0.0, DY=0.0, DZ=0.0),
        _F(GROUP_MA="SIDE_XMIN", DX=0.0),
        _F(GROUP_MA="SIDE_XMAX", DX=0.0),
        _F(GROUP_MA="SIDE_YMIN", DY=0.0),
        _F(GROUP_MA="SIDE_YMAX", DY=0.0),
    ),
)

# ================== Tai GD5 — ap luc mat THAT tren nua mien +X (q=40.8kPa nen) ==================
CHAR_GD5 = AFFE_CHAR_MECA(
    MODELE=MO,
    PRES_REP=(
        _F(GROUP_MA="TOP_SOIL_POSX", PRES=40.8),
        _F(GROUP_MA="TOP_COLUMN_POSX", PRES=40.8),
    ),
)

# ================== Tai vua hang x=0 — luc khoi tuong duong (kN/m3), huong +X ==================
# P=P_tuong_ung kPa, D=0.8m -> FX = 4P/(pi.D) = 4651.43 kN/m3 (xem doc string ccx tuong duong)
CHAR_VUA = AFFE_CHAR_MECA(MODELE=MO, FORCE_INTERNE=_F(GROUP_MA="CDM_COLUMN_ROW_X0", FX=4651.43))

# ================== BUOC K0 + BUOC CHINH — MOT STAT_NON_LINE DUY NHAT ==================
# SUA LOI QUAN TRONG (2026-08-28, sau khi doc R7.01.14 muc 7.1): lam K0 bang mot
# STAT_NON_LINE ELASTIQUE RIENG ROI ep SIEF_ELGA vao ETAT_INIT cho buoc Cam-Clay
# tao ra XUNG DOT — VARI_ELGA (bien noi tai, gom V1=Pcr) van bi "khoi tao ve
# khong" (log xac nhan: "Le champ <VARI_ELGA> est initialise a zero") trong khi
# SIEF_ELGA (ung suat) da khac khong tu SIG0 -> mat cheo Pcr=0 voi P,Q thuc khac
# khong -> mien deo suy bien -> tich phan dia phuong that bai GIONG HET nhau bat
# ke buoc thoi gian nho den dau (da thay: residual tuyet doi giong nhau tu muc
# chia 0,05 xuong 7,6e-7 — chung to KHONG PHAI do buoc qua lon).
# Tai lieu chinh thuc (R7.01.14 muc 7.1 "Initialisation du calcul") neu ro 2 cach
# HOP LE: hoac Kcam=0 + tu tay khoi tao SIEF_ELGA rieng (cach cu, gay loi tren vi
# thieu VARI tuong ung), HOAC Kcam DUONG + "calcul peut se faire avec un etat de
# contraintes initiales nulles" — nghia la CHAY TRUC TIEP tu SIEF=0 VA VARI=0
# dong thoi (nhat quan), de chinh luat Cam-Clay tu sinh ra Pcr/P/Q hop ly qua qua
# trinh tang trong luc. Do do GOP buoc K0 (trong luc, gamma' + MNN=dinh coc) VAO
# CHUNG mot STAT_NON_LINE COMPORTEMENT=CAM_CLAY tu dau (t=-1 den t=1), khong dung
# ETAT_INIT nua — dung y cach 1 chinh thuc.
CHAR_TRONGLUC = AFFE_CHAR_MECA(MODELE=MO, PESANTEUR=_F(GRAVITE=9.81, DIRECTION=(0.0, 0.0, -1.0)))
COEF_K0 = DEFI_FONCTION(NOM_PARA="INST", PROL_DROITE="CONSTANT", VALE=(-1.0, 0.0, 0.0, 1.0))
COEF_TAI = DEFI_FONCTION(NOM_PARA="INST", PROL_DROITE="CONSTANT", VALE=(-1.0, 0.0, 0.0, 0.0, 1.0, 1.0))

LINST = DEFI_LIST_REEL(
    DEBUT=-1.0,
    INTERVALLE=(_F(JUSQU_A=0.0, NOMBRE=10), _F(JUSQU_A=1.0, NOMBRE=20)),
)
DEFLIST = DEFI_LIST_INST(
    DEFI_LIST=_F(LIST_INST=LINST),
    ECHEC=_F(EVENEMENT="ERREUR", ACTION="DECOUPE", SUBD_METHODE="MANUEL", SUBD_PAS=4, SUBD_NIVEAU=10),
)

RESU = STAT_NON_LINE(
    MODELE=MO,
    CHAM_MATER=CHMAT,
    EXCIT=(
        _F(CHARGE=CHAR_TRONGLUC, FONC_MULT=COEF_K0),
        _F(CHARGE=CHAR_GD5, FONC_MULT=COEF_TAI),
        _F(CHARGE=CHAR_VUA, FONC_MULT=COEF_TAI),
        _F(CHARGE=DEPL),
    ),
    COMPORTEMENT=(
        _F(RELATION="CAM_CLAY", GROUP_MA="SOIL_dat_yeu",
           ITER_INTE_MAXI=100, ITER_INTE_PAS=-10),
        _F(RELATION="ELAS", GROUP_MA=("SOIL_dat_dap", "SOIL_lop_cung", "CDM_COLUMN")),
    ),
    NEWTON=_F(MATRICE="TANGENTE", REAC_ITER=1),
    CONVERGENCE=_F(RESI_GLOB_RELA=1.0e-3, ITER_GLOB_MAXI=50),
    INCREMENT=_F(LIST_INST=DEFLIST, INST_INIT=-1.0, INST_FIN=1.0),
    SOLVEUR=_F(METHODE="MUMPS"),
)

RESU = CALC_CHAMP(reuse=RESU, CONTRAINTE=("SIGM_ELNO",), RESULTAT=RESU)
RESU = CALC_CHAMP(reuse=RESU, CONTRAINTE="SIGM_NOEU", RESULTAT=RESU)

# ================== Trich Ux tai dinh hang x=0 (nut GAN NHAT (0,0,0.8), khong loc nguong) ==================
# Dung POST_RELEVE_T (da xac nhan qua ssnv232b.comm) — AN TOAN hon goi truc tiep
# API doi tuong Python (RESU.getField) CHUA tung kiem chung trong du an nay.
MA_PY = MA.getCoordinates().getValues()
n_nodes = len(MA_PY) // 3
best_i, best_d2 = 0, 1e18
for i in range(n_nodes):
    x, y, z = MA_PY[3 * i], MA_PY[3 * i + 1], MA_PY[3 * i + 2]
    d2 = x * x + y * y + (z - 0.8) ** 2
    if d2 < best_d2:
        best_d2, best_i = d2, i
print("NUT DINH HANG X0 (0-idx):", best_i, "toa do:", MA_PY[3*best_i:3*best_i+3], "khoang_cach2:", best_d2)

node_name = "N%d" % (best_i + 1)  # quy uoc N<n> 1-indexed, cung thu tu getCoordinates()
MA = DEFI_GROUP(reuse=MA, MAILLAGE=MA, CREA_GROUP_NO=_F(NOM="PT_DINH_X0", NOEUD=node_name))

TAB_UX = POST_RELEVE_T(
    ACTION=_F(
        INTITULE="UX_DINH_X0", GROUP_NO="PT_DINH_X0", RESULTAT=RESU,
        NOM_CHAM="DEPL", TOUT_CMP="OUI", OPERATION="EXTRACTION",
    )
)
IMPR_TABLE(TABLE=TAB_UX)

IMPR_RESU(FORMAT="MED", UNITE=80, RESU=_F(RESULTAT=RESU, NOM_CHAM=("DEPL", "SIGM_NOEU")))

FIN()
