** cdm3d ? grout2mpa_Es1200 ? sinh tu dong, xem scripts/cdm3d/ccx_input.py
** zone=KE  element=C3D4  don vi: kN-m-s (kPa)
*NODE, NSET=NALL
1, -5.800000, -5.800000, 0.000000
2, -5.800000, -5.800000, 0.800000
3, -5.800000, 5.800000, 0.800000
4, -5.800000, 5.800000, 0.000000
5, 5.800000, -5.800000, 0.000000
6, 5.800000, -5.800000, 0.800000
7, 5.800000, 5.800000, 0.800000
8, -1.400000, -1.800000, 0.800000
9, 0.400000, -1.800000, 0.800000
10, 2.200000, -1.800000, 0.800000
11, -1.400000, -0.000000, 0.800000
12, -1.400000, 1.800000, 0.800000
13, 0.400000, -0.000000, 0.800000
14, 2.200000, -0.000000, 0.800000
15, 0.400000, 1.800000, 0.800000
16, 2.200000, 1.800000, 0.800000
17, 5.800000, 5.800000, 0.000000
18, -1.400000, -1.800000, 0.000000
19, 0.400000, -1.800000, 0.000000
20, 2.200000, -1.800000, 0.000000
** ... 28798 like lines cut
*ELEMENT, TYPE=C3D4, ELSET=SOIL_dat_dap
1, 1361, 10022, 2247, 10047
2, 1992, 10108, 1889, 10109
3, 1490, 1921, 10070, 10071
4, 1534, 1869, 10031, 10043
5, 2224, 2209, 1563, 10006
6, 1567, 1833, 10019, 10141
7, 2182, 2201, 2007, 10015
8, 1232, 1275, 1325, 10106
9, 1298, 1570, 1365, 10096
10, 1961, 2032, 1831, 10053
11, 2007, 10015, 2201, 10061
12, 1232, 1325, 10007, 10106
13, 1665, 9993, 10089, 10145
14, 1275, 9989, 1325, 10106
15, 10022, 10047, 1361, 10146
16, 1308, 10006, 10029, 10124
17, 1305, 10111, 10039, 10147
18, 9989, 10007, 1325, 10106
19, 1710, 1648, 1691, 10116
20, 9992, 10009, 1293, 10055
** ... 4823 like lines cut
*ELEMENT, TYPE=C3D4, ELSET=CDM_COLUMN
4844, 2258, 2044, 2033, 10169
4845, 2258, 237, 2046, 10169
4846, 2046, 2044, 2258, 10169
4847, 2254, 2041, 2037, 10169
4848, 2035, 2036, 2254, 10169
4849, 2033, 2255, 2258, 10169
4850, 2256, 237, 2258, 10169
4851, 2256, 2048, 237, 10169
4852, 2042, 2032, 2050, 10169
4853, 2042, 2256, 2032, 10169
4854, 2053, 2034, 2039, 10169
4855, 2038, 2034, 2054, 10169
4856, 2255, 2039, 2034, 10169
4857, 2049, 2033, 2044, 10169
4858, 2052, 2039, 2033, 10169
4859, 2051, 2032, 2038, 10169
4860, 2255, 2033, 2039, 10169
4861, 2032, 2257, 2038, 10169
4862, 2038, 2257, 2034, 10169
4863, 2048, 2042, 2030, 10169
** ... 22068 like lines cut
*ELEMENT, TYPE=C3D4, ELSET=SOIL_dat_yeu
5847, 11558, 16276, 7819, 16955
5848, 15113, 15470, 15012, 22767
5849, 6094, 17261, 15398, 19623
5850, 15269, 15709, 11628, 17154
5851, 12730, 16090, 1062, 16237
5852, 11577, 14828, 11813, 15071
5853, 3762, 11986, 18803, 21693
5854, 14308, 15646, 15111, 16750
5855, 3738, 4202, 16312, 18993
5856, 10303, 13249, 12563, 13768
5857, 13108, 11866, 15395, 22220
5858, 4431, 13250, 13251, 16000
5859, 8822, 15272, 15374, 15880
5860, 15719, 21518, 10816, 23512
5861, 11366, 15113, 15012, 22767
5862, 13047, 16954, 14818, 21708
5863, 14409, 17419, 12058, 20740
5864, 9194, 8585, 9088, 15484
5865, 16730, 17740, 13054, 18350
5866, 15919, 17466, 13451, 17673
** ... 117968 like lines cut
*ELEMENT, TYPE=C3D4, ELSET=SOIL_lop_cung
143750, 25233, 26317, 26144, 27051
143751, 25281, 26833, 26739, 26956
143752, 26847, 27082, 25602, 27728
143753, 25251, 25784, 27726, 28002
143754, 25120, 26456, 25701, 26591
143755, 25086, 25503, 27255, 27372
143756, 26074, 27726, 25784, 28002
143757, 26167, 26247, 25863, 26732
143758, 25858, 25859, 26511, 27735
143759, 26147, 27082, 26847, 27728
143760, 9315, 26995, 25734, 27637
143761, 25732, 27052, 25166, 27440
143762, 9415, 26076, 25988, 26882
143763, 25562, 26799, 26593, 28352
143764, 9957, 26673, 26144, 27479
143765, 25780, 27511, 26275, 28572
143766, 9782, 27154, 27134, 27733
143767, 27086, 27785, 26376, 28145
143768, 25159, 26172, 25713, 26990
143769, 25963, 27550, 26286, 27718
** ... 27419 like lines cut
*MATERIAL, NAME=MAT_SOIL_dat_dap
*ELASTIC
8000.000, 0.300
*DENSITY
1.936799
*SOLID SECTION, ELSET=SOIL_dat_dap, MATERIAL=MAT_SOIL_dat_dap
*MATERIAL, NAME=MAT_CDM_COLUMN
*ELASTIC
40000.000, 0.250
*DENSITY
1.834862
*SOLID SECTION, ELSET=CDM_COLUMN, MATERIAL=MAT_CDM_COLUMN
*MATERIAL, NAME=MAT_SOIL_dat_yeu
*ELASTIC
1200.000, 0.350
*MOHR COULOMB
0.000, 0.000, 293.
*MOHR COULOMB HARDENING
5000.000, 0., 293.
*DENSITY
1.558716
*SOLID SECTION, ELSET=SOIL_dat_yeu, MATERIAL=MAT_SOIL_dat_yeu
*MATERIAL, NAME=MAT_SOIL_lop_cung
*ELASTIC
27600.000, 0.350
*DENSITY
1.936799
*SOLID SECTION, ELSET=SOIL_lop_cung, MATERIAL=MAT_SOIL_lop_cung
*NSET, NSET=SIDE_XMIN
1, 2, 3, 4, 27, 28, 40, 41, 53, 54
55, 56, 57, 58, 59, 60, 61, 62, 255, 256
257, 258, 259, 260, 261, 262, 263, 264, 265, 266
267, 268, 269, 270, 271, 272, 273, 274, 275, 276
277, 278, 279, 280, 281, 1075, 1076, 1077, 1078, 1079
1080, 1081, 1082, 1083, 1202, 1203, 1204, 1205, 1206, 1207
2323, 2324, 2325, 2326, 2327, 2328, 2329, 2330, 2331, 2332
2333, 2334, 2335, 2336, 2337, 2338, 2339, 2340, 2341, 2342
2343, 2344, 2345, 2346, 2347, 2348, 2349, 2350, 2351, 2352
2353, 2354, 2355, 2356, 2357, 2358, 2359, 2360, 2361, 2362
2363, 2364, 2365, 2366, 2367, 2368, 2369, 2370, 2371, 2372
2373, 2374, 2375, 2376, 2377, 2378, 2379, 2380, 2381, 2382
2383, 2384, 2385, 2386, 2387, 2388, 2389, 2390, 2391, 9236
9237, 9238, 9239, 9240, 9241, 9242, 9243, 9244, 9245, 9246
9247, 9248, 9249
*NSET, NSET=SIDE_YMIN
1, 2, 5, 6, 27, 29, 40, 42, 63, 64
65, 66, 67, 68, 69, 70, 71, 72, 255, 256
257, 258, 259, 260, 261, 262, 263, 264, 265, 282
283, 284, 285, 286, 287, 288, 289, 290, 291, 292
293, 294, 295, 296, 297, 1075, 1076, 1084, 1085, 1086
1087, 1088, 1089, 1090, 1208, 1209, 1210, 1211, 1212, 1213
2392, 2393, 2394, 2395, 2396, 2397, 2398, 2399, 2400, 2401
2402, 2403, 2404, 2405, 2406, 2407, 2408, 2409, 2410, 2411
2412, 2413, 2414, 2415, 2416, 2417, 2418, 2419, 2420, 2421
2422, 2423, 2424, 2425, 2426, 2427, 2428, 2429, 2430, 2431
2432, 2433, 2434, 2435, 2436, 2437, 2438, 2439, 2440, 2441
2442, 2443, 2444, 2445, 2446, 2447, 2448, 2449, 2450, 2451
2452, 2453, 2454, 2455, 2456, 2457, 2458, 2459, 2460, 9250
9251, 9252, 9253, 9254, 9255, 9256, 9257, 9258, 9259, 9260
9261, 9262, 9263
*NSET, NSET=TOP_SOIL
2, 3, 6, 7, 8, 9, 10, 11, 12, 13
14, 15, 16, 53, 54, 55, 56, 57, 68, 69
70, 71, 72, 73, 74, 75, 76, 77, 78, 79
80, 81, 82, 83, 84, 85, 86, 87, 88, 89
90, 91, 92, 93, 94, 95, 96, 97, 98, 99
100, 101, 102, 103, 104, 105, 106, 107, 108, 109
110, 111, 112, 113, 114, 115, 116, 117, 118, 119
120, 121, 122, 123, 124, 125, 126, 127, 128, 129
130, 131, 132, 133, 134, 135, 136, 137, 138, 139
140, 141, 142, 143, 144, 145, 146, 147, 148, 149
150, 151, 152, 153, 154, 1214, 1215, 1216, 1217, 1218
1219, 1220, 1221, 1222, 1223, 1224, 1225, 1226, 1227, 1228
1229, 1230, 1231, 1232, 1233, 1234, 1235, 1236, 1237, 1238
1239, 1240, 1241, 1242, 1243, 1244, 1245, 1246, 1247, 1248
1249, 1250, 1251, 1252, 1253, 1254, 1255, 1256, 1257, 1258
1259, 1260, 1261, 1262, 1263, 1264, 1265, 1266, 1267, 1268
1269, 1270, 1271, 1272, 1273, 1274, 1275, 1276, 1277, 1278
1279, 1280, 1281, 1282, 1283, 1284, 1285, 1286, 1287, 1288
1289, 1290, 1291, 1292, 1293, 1294, 1295, 1296, 1297, 1298
1299, 1300, 1301, 1302, 1303, 1304, 1305, 1306, 1307, 1308
** ... 31 like lines cut
*NSET, NSET=SIDE_YMAX
3, 4, 7, 17, 28, 30, 41, 43, 73, 74
75, 76, 77, 155, 156, 157, 158, 159, 266, 267
268, 269, 270, 271, 272, 273, 274, 275, 276, 298
299, 300, 301, 302, 303, 304, 305, 306, 307, 308
309, 310, 311, 312, 313, 1077, 1078, 1091, 1092, 1093
1094, 1095, 1096, 1097, 1617, 1618, 1619, 1620, 1621, 1622
2461, 2462, 2463, 2464, 2465, 2466, 2467, 2468, 2469, 2470
2471, 2472, 2473, 2474, 2475, 2476, 2477, 2478, 2479, 2480
2481, 2482, 2483, 2484, 2485, 2486, 2487, 2488, 2489, 2490
2491, 2492, 2493, 2494, 2495, 2496, 2497, 2498, 2499, 2500
2501, 2502, 2503, 2504, 2505, 2506, 2507, 2508, 2509, 2510
2511, 2512, 2513, 2514, 2515, 2516, 2517, 2518, 2519, 2520
2521, 2522, 2523, 2524, 2525, 2526, 2527, 2528, 2529, 9264
9265, 9266, 9267, 9268, 9269, 9270, 9271, 9272, 9273, 9274
9275, 9276, 9277
*NSET, NSET=SIDE_XMAX
5, 6, 7, 17, 29, 30, 42, 43, 78, 79
80, 81, 82, 160, 161, 162, 163, 164, 287, 288
289, 290, 291, 292, 293, 294, 295, 296, 297, 303
304, 305, 306, 307, 308, 309, 310, 311, 312, 313
314, 315, 316, 317, 318, 1089, 1090, 1096, 1097, 1098
1099, 1100, 1101, 1102, 2023, 2024, 2025, 2026, 2027, 2028
2930, 2931, 2932, 2933, 2934, 2935, 2936, 2937, 2938, 2939
2940, 2941, 2942, 2943, 2944, 2945, 2946, 2947, 2948, 2949
2950, 2951, 2952, 2953, 2954, 2955, 2956, 2957, 2958, 2959
2960, 2961, 2962, 2963, 2964, 2965, 2966, 2967, 2968, 2969
2970, 2971, 2972, 2973, 2974, 2975, 2976, 2977, 2978, 2979
2980, 2981, 2982, 2983, 2984, 2985, 2986, 2987, 2988, 2989
2990, 2991, 2992, 2993, 2994, 2995, 2996, 2997, 2998, 2999
9683, 9684, 9685, 9686, 9687, 9688, 9689, 9690, 9691, 9692
9693, 9694, 9695, 9696
*NSET, NSET=TOP_COLUMN
8, 9, 10, 11, 12, 13, 14, 15, 16, 83
84, 85, 86, 87, 88, 89, 90, 91, 92, 93
94, 95, 96, 97, 98, 99, 100, 101, 102, 103
104, 105, 106, 107, 108, 109, 110, 111, 112, 113
114, 115, 116, 117, 118, 119, 120, 121, 122, 123
124, 125, 126, 127, 128, 129, 130, 131, 132, 133
134, 135, 136, 137, 138, 139, 140, 141, 142, 143
144, 145, 146, 147, 148, 149, 150, 151, 152, 153
154, 2251, 2252, 2253, 2254, 2259, 2260, 2261, 2262, 2267
2268, 2269, 2270, 2275, 2276, 2277, 2278, 2283, 2284, 2285
2286, 2291, 2292, 2293, 2294, 2299, 2300, 2301, 2302, 2307
2308, 2309, 2310, 2315, 2316, 2317, 2318
*NSET, NSET=BASE
40, 41, 42, 43, 1079, 1080, 1081, 1082, 1083, 1084
1085, 1086, 1087, 1088, 1091, 1092, 1093, 1094, 1095, 1098
1099, 1100, 1101, 1102, 9278, 9279, 9280, 9281, 9282, 9283
9284, 9285, 9286, 9287, 9288, 9289, 9290, 9291, 9292, 9293
9294, 9295, 9296, 9297, 9298, 9299, 9300, 9301, 9302, 9303
9304, 9305, 9306, 9307, 9308, 9309, 9310, 9311, 9312, 9313
9314, 9315, 9316, 9317, 9318, 9319, 9320, 9321, 9322, 9323
9324, 9325, 9326, 9327, 9328, 9329, 9330, 9331, 9332, 9333
9334, 9335, 9336, 9337, 9338, 9339, 9340, 9341, 9342, 9343
9344, 9345, 9346, 9347, 9348, 9349, 9350, 9351, 9352, 9353
9354, 9355, 9356, 9357, 9358, 9359, 9360, 9361, 9362, 9363
9364, 9365, 9366, 9367, 9368, 9369, 9370, 9371, 9372, 9373
9374, 9375, 9376, 9377, 9378, 9379, 9380, 9381, 9382, 9383
9384, 9385, 9386, 9387, 9388, 9389, 9390, 9391, 9392, 9393
9394, 9395, 9396, 9397, 9398, 9399, 9400, 9401, 9402, 9403
9404, 9405, 9406, 9407, 9408, 9409, 9410, 9411, 9412, 9413
9414, 9415, 9416, 9417, 9418, 9419, 9420, 9421, 9422, 9423
9424, 9425, 9426, 9427, 9428, 9429, 9430, 9431, 9432, 9433
9434, 9435, 9436, 9437, 9438, 9439, 9440, 9441, 9442, 9443
9444, 9445, 9446, 9447, 9448, 9449, 9450, 9451, 9452, 9453
** ... 23 like lines cut
*BOUNDARY
BASE, 1, 3
SIDE_XMIN, 1, 1
SIDE_XMAX, 1, 1
SIDE_YMIN, 2, 2
SIDE_YMAX, 2, 2
*STEP
*STATIC
*DLOAD
1516, P3, 40.800000
1668, P1, 40.800000
1901, P3, 40.800000
1518, P2, 40.800000
4387, P2, 40.800000
4376, P1, 40.800000
3082, P2, 40.800000
2954, P4, 40.800000
4277, P1, 40.800000
4154, P1, 40.800000
3481, P2, 40.800000
4055, P2, 40.800000
4214, P3, 40.800000
3558, P4, 40.800000
4242, P1, 40.800000
4336, P1, 40.800000
3643, P4, 40.800000
4649, P4, 40.800000
4322, P3, 40.800000
4213, P2, 40.800000
** ... 511 like lines cut
*CLOAD
9, 1, 42.227740
13, 1, 42.227740
15, 1, 42.227740
19, 1, 42.227740
23, 1, 42.227740
25, 1, 42.227740
32, 1, 42.227740
36, 1, 42.227740
38, 1, 42.227740
45, 1, 42.227740
49, 1, 42.227740
51, 1, 42.227740
91, 1, 42.227740
92, 1, 42.227740
93, 1, 42.227740
94, 1, 42.227740
95, 1, 42.227740
96, 1, 42.227740
97, 1, 42.227740
98, 1, 42.227740
** ... 2799 like lines cut
*NODE FILE
U
*EL FILE
S, E
*END STEP
