** cdm3d CONTACT ? test_9col_full ? sinh tu dong, xem scripts/cdm3d/contact_ccx_input.py
** zone=KE  mu=0.1961  don vi: kN-m-s (kPa)
*NODE, NSET=NALL
1, -1.400000, -1.800000, -24.000000
2, -1.400000, -0.000000, -24.000000
3, -1.400000, 1.800000, -24.000000
4, 0.400000, -1.800000, -24.000000
5, 0.400000, -0.000000, -24.000000
6, 0.400000, 1.800000, -24.000000
7, 2.200000, -1.800000, -24.000000
8, 2.200000, -0.000000, -24.000000
9, 2.200000, 1.800000, -24.000000
10, -5.800000, -5.800000, 0.000000
11, -5.800000, -5.800000, 0.800000
12, -5.800000, 5.800000, 0.800000
13, -5.800000, 5.800000, 0.000000
14, 5.800000, -5.800000, 0.000000
15, 5.800000, -5.800000, 0.800000
16, 5.800000, 5.800000, 0.800000
17, -1.400000, -1.800000, 0.800000
18, 0.400000, -1.800000, 0.800000
19, 2.200000, -1.800000, 0.800000
20, -1.400000, -0.000000, 0.800000
** ... 32304 like lines cut
*ELEMENT, TYPE=C3D4, ELSET=SOIL_dat_dap
1, 2032, 10004, 1925, 10005
2, 1685, 9927, 2265, 9940
3, 1922, 1507, 9945, 9969
4, 1529, 9926, 1959, 9939
5, 2039, 9896, 9877, 9957
6, 1869, 9912, 1603, 10037
7, 2218, 2237, 2046, 9906
8, 1268, 1311, 1362, 10003
9, 2002, 2068, 1867, 9944
10, 1685, 2265, 1994, 9940
11, 2046, 9906, 2237, 9951
12, 1268, 1362, 9903, 10003
13, 1311, 9880, 1362, 10003
14, 1628, 9896, 9877, 9958
15, 1772, 9896, 9893, 9941
16, 9880, 9903, 1362, 10003
17, 1628, 9877, 9896, 9957
18, 1751, 9877, 2039, 9896
19, 1981, 9919, 1782, 9976
20, 1583, 1289, 2256, 10056
** ... 4808 like lines cut
*ELEMENT, TYPE=C3D4, ELSET=SOIL_dat_yeu
4829, 11446, 16111, 7782, 16807
4830, 15003, 15351, 14905, 22656
4831, 6057, 17111, 15279, 19480
4832, 3725, 11895, 18652, 21533
4833, 15274, 20673, 16147, 21843
4834, 14544, 19098, 12658, 20180
4835, 8375, 14832, 17601, 19533
4836, 3164, 12158, 16893, 18979
4837, 12208, 12695, 10964, 15747
4838, 16332, 16891, 16463, 22585
4839, 13727, 16855, 7619, 19129
4840, 3701, 4165, 16147, 18825
4841, 10182, 13129, 12459, 13654
4842, 13001, 11762, 15278, 22065
4843, 15590, 21344, 10682, 23409
4844, 11243, 15003, 14905, 22656
4845, 12935, 16805, 14731, 21553
4846, 14321, 17288, 11969, 20602
4847, 16571, 17621, 12943, 18233
4848, 1126, 12704, 14565, 14566
** ... 117745 like lines cut
*ELEMENT, TYPE=C3D4, ELSET=SOIL_lop_cung
122594, 24515, 25108, 27329, 27791
122595, 25936, 25952, 25934, 25953
122596, 9280, 26156, 24896, 27305
122597, 25013, 24478, 25591, 26296
122598, 24818, 25554, 24762, 25937
122599, 25108, 25372, 24515, 27329
122600, 9599, 26027, 25679, 26432
122601, 24963, 24571, 25737, 25990
122602, 25401, 26334, 25863, 27164
122603, 24762, 25851, 24818, 25937
122604, 24734, 25861, 26193, 26385
122605, 24894, 24469, 25181, 26052
122606, 24538, 24887, 26518, 26658
122607, 25307, 24886, 27197, 27334
122608, 25355, 27030, 61, 27031
122609, 24662, 25385, 25137, 25858
122610, 24504, 25136, 24929, 26984
122611, 9287, 25011, 9291, 25975
122612, 25274, 26241, 25852, 27800
122613, 24840, 25336, 24563, 26159
** ... 27457 like lines cut
*ELEMENT, TYPE=C3D4, ELSET=CDM_COLUMN
150071, 28974, 28177, 29090, 28870
150072, 29090, 28992, 28974, 28870
150073, 29090, 28992, 28870, 28784
150074, 29033, 28147, 28922, 32215
150075, 28177, 29090, 28870, 28784
150076, 29125, 28851, 28908, 32220
150077, 28179, 29116, 28840, 28804
150078, 28900, 28903, 28168, 29101
150079, 28185, 28997, 28778, 32221
150080, 29056, 28822, 29146, 32213
150081, 29012, 28171, 28970, 29085
150082, 28904, 28908, 29125, 28851
150083, 28870, 28992, 29106, 28784
150084, 28845, 28161, 28846, 28770
150085, 29146, 29046, 28779, 32213
150086, 29118, 28145, 28793, 32215
150087, 28840, 29116, 29007, 28804
150088, 28974, 28991, 28177, 28788
150089, 29002, 28183, 29001, 32221
150090, 28152, 28882, 29128, 32216
** ... 10553 like lines cut
*MATERIAL, NAME=MAT_SOIL_dat_dap
*ELASTIC
8000.000, 0.300
*DENSITY
1.936799
*SOLID SECTION, ELSET=SOIL_dat_dap, MATERIAL=MAT_SOIL_dat_dap
*MATERIAL, NAME=MAT_SOIL_dat_yeu
*ELASTIC
3450.000, 0.350
*DENSITY
1.558716
*SOLID SECTION, ELSET=SOIL_dat_yeu, MATERIAL=MAT_SOIL_dat_yeu
*MATERIAL, NAME=MAT_SOIL_lop_cung
*ELASTIC
27600.000, 0.350
*DENSITY
1.936799
*SOLID SECTION, ELSET=SOIL_lop_cung, MATERIAL=MAT_SOIL_lop_cung
*MATERIAL, NAME=MAT_CDM_COLUMN
*ELASTIC
40000.000, 0.250
*DENSITY
1.834862
*SOLID SECTION, ELSET=CDM_COLUMN, MATERIAL=MAT_CDM_COLUMN
*NSET, NSET=BASE
49, 50, 51, 52, 1151, 1152, 1153, 1154, 1155, 1156
1157, 1158, 1159, 1160, 1163, 1164, 1165, 1166, 1167, 1170
1171, 1172, 1173, 1174, 9205, 9206, 9207, 9208, 9209, 9210
9211, 9212, 9213, 9214, 9215, 9216, 9217, 9218, 9219, 9220
9221, 9222, 9223, 9224, 9225, 9226, 9227, 9228, 9229, 9230
9231, 9232, 9233, 9234, 9235, 9236, 9237, 9238, 9239, 9240
9241, 9242, 9243, 9244, 9245, 9246, 9247, 9248, 9249, 9250
9251, 9252, 9253, 9254, 9255, 9256, 9257, 9258, 9259, 9260
9261, 9262, 9263, 9264, 9265, 9266, 9267, 9268, 9269, 9270
9271, 9272, 9273, 9274, 9275, 9276, 9277, 9278, 9279, 9280
9281, 9282, 9283, 9284, 9285, 9286, 9287, 9288, 9289, 9290
9291, 9292, 9293, 9294, 9295, 9296, 9297, 9298, 9299, 9300
9301, 9302, 9303, 9304, 9305, 9306, 9307, 9308, 9309, 9310
9311, 9312, 9313, 9314, 9315, 9316, 9317, 9318, 9319, 9320
9321, 9322, 9323, 9324, 9325, 9326, 9327, 9328, 9329, 9330
9331, 9332, 9333, 9334, 9335, 9336, 9337, 9338, 9339, 9340
9341, 9342, 9343, 9344, 9345, 9346, 9347, 9348, 9349, 9350
9351, 9352, 9353, 9354, 9355, 9356, 9357, 9358, 9359, 9360
9361, 9362, 9363, 9364, 9365, 9366, 9367, 9368, 9369, 9370
9371, 9372, 9373, 9374, 9375, 9376, 9377, 9378, 9379, 9380
** ... 23 like lines cut
*NSET, NSET=SIDE_XMIN
10, 11, 12, 13, 36, 37, 49, 50, 125, 126
127, 128, 129, 130, 131, 132, 133, 134, 327, 328
329, 330, 331, 332, 333, 334, 335, 336, 337, 338
339, 340, 341, 342, 343, 344, 345, 346, 347, 348
349, 350, 351, 352, 353, 1147, 1148, 1149, 1150, 1151
1152, 1153, 1154, 1155, 1238, 1239, 1240, 1241, 1242, 1243
2287, 2288, 2289, 2290, 2291, 2292, 2293, 2294, 2295, 2296
2297, 2298, 2299, 2300, 2301, 2302, 2303, 2304, 2305, 2306
2307, 2308, 2309, 2310, 2311, 2312, 2313, 2314, 2315, 2316
2317, 2318, 2319, 2320, 2321, 2322, 2323, 2324, 2325, 2326
2327, 2328, 2329, 2330, 2331, 2332, 2333, 2334, 2335, 2336
2337, 2338, 2339, 2340, 2341, 2342, 2343, 2344, 2345, 2346
2347, 2348, 2349, 2350, 2351, 2352, 2353, 2354, 2355, 9163
9164, 9165, 9166, 9167, 9168, 9169, 9170, 9171, 9172, 9173
9174, 9175, 9176
*NSET, NSET=SIDE_XMAX
14, 15, 16, 26, 38, 39, 51, 52, 150, 151
152, 153, 154, 232, 233, 234, 235, 236, 359, 360
361, 362, 363, 364, 365, 366, 367, 368, 369, 375
376, 377, 378, 379, 380, 381, 382, 383, 384, 385
386, 387, 388, 389, 390, 1161, 1162, 1168, 1169, 1170
1171, 1172, 1173, 1174, 2059, 2060, 2061, 2062, 2063, 2064
2894, 2895, 2896, 2897, 2898, 2899, 2900, 2901, 2902, 2903
2904, 2905, 2906, 2907, 2908, 2909, 2910, 2911, 2912, 2913
2914, 2915, 2916, 2917, 2918, 2919, 2920, 2921, 2922, 2923
2924, 2925, 2926, 2927, 2928, 2929, 2930, 2931, 2932, 2933
2934, 2935, 2936, 2937, 2938, 2939, 2940, 2941, 2942, 2943
2944, 2945, 2946, 2947, 2948, 2949, 2950, 2951, 2952, 2953
2954, 2955, 2956, 2957, 2958, 2959, 2960, 2961, 2962, 9610
9611, 9612, 9613, 9614, 9615, 9616, 9617, 9618, 9619, 9620
9621, 9622, 9623
*NSET, NSET=SIDE_YMIN
10, 11, 14, 15, 36, 38, 49, 51, 135, 136
137, 138, 139, 140, 141, 142, 143, 144, 327, 328
329, 330, 331, 332, 333, 334, 335, 336, 337, 354
355, 356, 357, 358, 359, 360, 361, 362, 363, 364
365, 366, 367, 368, 369, 1147, 1148, 1156, 1157, 1158
1159, 1160, 1161, 1162, 1244, 1245, 1246, 1247, 1248, 1249
2356, 2357, 2358, 2359, 2360, 2361, 2362, 2363, 2364, 2365
2366, 2367, 2368, 2369, 2370, 2371, 2372, 2373, 2374, 2375
2376, 2377, 2378, 2379, 2380, 2381, 2382, 2383, 2384, 2385
2386, 2387, 2388, 2389, 2390, 2391, 2392, 2393, 2394, 2395
2396, 2397, 2398, 2399, 2400, 2401, 2402, 2403, 2404, 2405
2406, 2407, 2408, 2409, 2410, 2411, 2412, 2413, 2414, 2415
2416, 2417, 2418, 2419, 2420, 2421, 2422, 2423, 2424, 9177
9178, 9179, 9180, 9181, 9182, 9183, 9184, 9185, 9186, 9187
9188, 9189, 9190
*NSET, NSET=SIDE_YMAX
12, 13, 16, 26, 37, 39, 50, 52, 145, 146
147, 148, 149, 227, 228, 229, 230, 231, 338, 339
340, 341, 342, 343, 344, 345, 346, 347, 348, 370
371, 372, 373, 374, 375, 376, 377, 378, 379, 380
381, 382, 383, 384, 385, 1149, 1150, 1163, 1164, 1165
1166, 1167, 1168, 1169, 1653, 1654, 1655, 1656, 1657, 1658
2425, 2426, 2427, 2428, 2429, 2430, 2431, 2432, 2433, 2434
2435, 2436, 2437, 2438, 2439, 2440, 2441, 2442, 2443, 2444
2445, 2446, 2447, 2448, 2449, 2450, 2451, 2452, 2453, 2454
2455, 2456, 2457, 2458, 2459, 2460, 2461, 2462, 2463, 2464
2465, 2466, 2467, 2468, 2469, 2470, 2471, 2472, 2473, 2474
2475, 2476, 2477, 2478, 2479, 2480, 2481, 2482, 2483, 2484
2485, 2486, 2487, 2488, 2489, 2490, 2491, 2492, 2493, 9191
9192, 9193, 9194, 9195, 9196, 9197, 9198, 9199, 9200, 9201
9202, 9203, 9204
*NSET, NSET=COLTOP
28106, 28108, 28110, 28112, 28114, 28116, 28118, 28120, 28122, 28124
28125, 28126, 28127, 28128, 28129, 28195, 28196, 28197, 28198, 28199
28200, 28266, 28267, 28268, 28269, 28270, 28271, 28337, 28338, 28339
28340, 28341, 28342, 28408, 28409, 28410, 28411, 28412, 28413, 28479
28480, 28481, 28482, 28483, 28484, 28550, 28551, 28552, 28553, 28554
28555, 28621, 28622, 28623, 28624, 28625, 28626, 28692, 28693, 28694
28695, 28696, 28697, 29146, 29532, 29913, 30294, 30677, 31058, 31444
31827, 32210
*SURFACE, NAME=SOIL_INNER, TYPE=ELEMENT
4031, S2
4164, S1
3450, S3
3569, S1
4178, S1
4315, S2
3599, S1
3707, S3
4096, S1
2799, S1
4058, S1
2195, S2
3682, S1
2111, S3
4123, S3
2722, S1
3852, S1
3156, S3
3893, S2
2438, S4
** ... 15272 like lines cut
*SURFACE, NAME=COL_LATERAL, TYPE=ELEMENT
150976, S3
150919, S3
150798, S4
150798, S1
150768, S3
150768, S1
150920, S2
150915, S4
150814, S3
150813, S2
150885, S1
150769, S3
150869, S1
150782, S1
150894, S1
150775, S1
150875, S3
150784, S2
150802, S4
150765, S1
** ... 8030 like lines cut
*SURFACE INTERACTION, NAME=SOIL_COL_INT
*SURFACE BEHAVIOR, PRESSURE-OVERCLOSURE=HARD
*FRICTION
0.1961, 100000.000
*CONTACT PAIR, INTERACTION=SOIL_COL_INT, TYPE=NODE TO SURFACE, ADJUST=0.02
SOIL_INNER, COL_LATERAL
*BOUNDARY
BASE, 1, 3
SIDE_XMIN, 1, 1
SIDE_XMAX, 1, 1
SIDE_YMIN, 2, 2
SIDE_YMAX, 2, 2
*STEP, NLGEOM
*STATIC
*CLOAD
11, 3, -14.781634
12, 3, -14.781634
15, 3, -14.781634
16, 3, -14.781634
17, 3, -0.522836
18, 3, -0.529059
19, 3, -0.679549
20, 3, -0.510767
21, 3, -0.523854
22, 3, -0.422915
23, 3, -0.451141
24, 3, -0.528995
25, 3, -0.615542
125, 3, -23.373656
126, 3, -26.280401
127, 3, -24.581516
128, 3, -24.144341
129, 3, -21.807692
140, 3, -22.958055
141, 3, -25.694141
** ... 560 like lines cut
*NODE FILE
U
*EL FILE
S, E
*END STEP
*STEP, NLGEOM
*STATIC
*CLOAD
11, 3, -17.680619
12, 3, -17.680619
15, 3, -37.750510
16, 3, -37.750510
17, 3, -0.894642
18, 3, -1.016755
19, 3, -1.449142
20, 3, -0.873989
21, 3, -0.896383
22, 3, -0.812765
23, 3, -0.962061
24, 3, -1.016632
25, 3, -1.312647
125, 3, -27.957713
126, 3, -31.434531
127, 3, -29.402460
128, 3, -28.879546
129, 3, -26.084632
140, 3, -32.655854
141, 3, -42.362108
** ... 560 like lines cut
*NODE FILE
U
*EL FILE
S, E
*END STEP
*STEP, NLGEOM
*STATIC
*CLOAD
11, 3, -14.017067
12, 3, -14.017067
15, 3, -59.891104
16, 3, -59.891104
17, 3, -1.111260
18, 3, -1.379264
19, 3, -2.098844
20, 3, -1.085607
21, 3, -1.113423
22, 3, -1.102545
23, 3, -1.393387
24, 3, -1.379097
25, 3, -1.901154
125, 3, -22.164673
126, 3, -24.921070
127, 3, -23.310058
128, 3, -22.895496
129, 3, -20.679708
140, 3, -33.645425
141, 3, -50.945280
** ... 560 like lines cut
*NODE FILE
U
*EL FILE
S, E
*END STEP
*STEP, NLGEOM
*STATIC
*CLOAD
15, 3, -36.954086
16, 3, -36.954086
18, 3, -1.322646
19, 3, -1.698872
22, 3, -1.057287
23, 3, -1.127852
24, 3, -1.322486
25, 3, -1.538855
142, 3, -58.980856
143, 3, -58.587212
144, 3, -54.065555
147, 3, -62.778320
148, 3, -59.149699
149, 3, -54.074976
150, 3, -57.897833
151, 3, -65.168769
152, 3, -62.930313
153, 3, -63.702512
154, 3, -53.621701
163, 3, -1.561181
** ... 273 like lines cut
*NODE FILE
U
*EL FILE
S, E
*END STEP
