** cdm3d CONTACT ? test_1col3layer ? sinh tu dong, xem scripts/cdm3d/contact_ccx_input.py
** zone=KE  mu=0.1961  don vi: kN-m-s (kPa)
*NODE, NSET=NALL
1, 0.400000, -0.000000, -24.000000
2, -3.400000, -3.400000, 0.000000
3, -3.400000, -3.400000, 0.800000
4, -3.400000, 3.400000, 0.800000
5, -3.400000, 3.400000, 0.000000
6, 3.400000, -3.400000, 0.000000
7, 3.400000, -3.400000, 0.800000
8, 3.400000, 3.400000, 0.800000
9, 0.400000, -0.000000, 0.800000
10, 3.400000, 3.400000, 0.000000
11, 0.400000, -0.000000, 0.000000
12, -3.400000, -3.400000, -23.000000
13, -3.400000, 3.400000, -23.000000
14, 3.400000, -3.400000, -23.000000
15, 3.400000, 3.400000, -23.000000
16, 0.400000, -0.000000, -23.000000
17, -3.400000, -3.400000, -28.000000
18, -3.400000, 3.400000, -28.000000
19, 3.400000, -3.400000, -28.000000
20, 3.400000, 3.400000, -28.000000
** ... 4603 like lines cut
*ELEMENT, TYPE=C3D4, ELSET=SOIL_dat_dap
1, 345, 1417, 346, 1422
2, 379, 264, 388, 1415
3, 388, 1415, 264, 1418
4, 344, 334, 1413, 1425
5, 369, 1411, 389, 1420
6, 376, 1417, 390, 1418
7, 344, 1423, 1415, 1425
8, 391, 1411, 259, 1416
9, 348, 373, 390, 1417
10, 367, 1412, 383, 1414
11, 373, 1417, 348, 1418
12, 262, 1417, 345, 1422
13, 373, 390, 1417, 1418
14, 344, 1413, 1423, 1425
15, 386, 335, 1413, 1423
16, 321, 358, 1417, 1419
17, 370, 1417, 270, 1419
18, 259, 377, 391, 1416
19, 1417, 1419, 327, 1422
20, 383, 1412, 279, 1414
** ... 645 like lines cut
*ELEMENT, TYPE=C3D4, ELSET=SOIL_dat_yeu
666, 1788, 2257, 1951, 3382
667, 1828, 2274, 1903, 2931
668, 621, 2380, 2376, 2953
669, 864, 1811, 858, 2287
670, 1696, 2983, 2981, 2984
671, 1803, 2038, 1647, 2612
672, 864, 858, 1811, 2971
673, 152, 689, 1869, 2019
674, 1547, 1778, 2190, 2890
675, 1039, 1795, 2289, 3208
676, 2017, 2214, 1807, 2666
677, 754, 1764, 2198, 2241
678, 2526, 2705, 2620, 3041
679, 1827, 1828, 1725, 2442
680, 1875, 2688, 2687, 3015
681, 152, 2019, 1869, 2872
682, 1835, 2827, 2416, 2962
683, 765, 1764, 754, 2241
684, 1078, 2624, 1892, 2668
685, 1871, 1950, 2193, 3314
** ... 17062 like lines cut
*ELEMENT, TYPE=C3D4, ELSET=SOIL_lop_cung
17748, 3739, 3664, 3900, 4012
17749, 3687, 3634, 3746, 3869
17750, 3664, 3739, 3900, 4082
17751, 1396, 3790, 1395, 3983
17752, 3621, 3746, 3687, 3892
17753, 3739, 4012, 3900, 4082
17754, 3634, 3687, 3746, 3841
17755, 3621, 3687, 3746, 3890
17756, 3821, 4007, 4059, 4118
17757, 3834, 3957, 3891, 4048
17758, 3655, 3801, 4011, 4027
17759, 3621, 3687, 3890, 3892
17760, 3714, 3786, 3752, 3942
17761, 3821, 3855, 3734, 3999
17762, 3704, 3706, 3696, 4035
17763, 3815, 3645, 3835, 3891
17764, 3634, 3849, 3731, 4098
17765, 3703, 3851, 3776, 3911
17766, 3708, 3843, 3913, 4034
17767, 3657, 3818, 3712, 4039
** ... 3947 like lines cut
*ELEMENT, TYPE=C3D4, ELSET=CDM_COLUMN
21715, 4440, 4207, 4554, 4332
21716, 4554, 4458, 4440, 4332
21717, 4554, 4458, 4332, 4247
21718, 4207, 4554, 4332, 4247
21719, 4588, 4313, 4362, 4617
21720, 4382, 4229, 4175, 4614
21721, 4167, 4428, 4393, 4613
21722, 4556, 4382, 4175, 4614
21723, 4382, 4379, 4229, 4614
21724, 4209, 4580, 4302, 4267
21725, 4354, 4357, 4198, 4565
21726, 4215, 4463, 4240, 4620
21727, 4520, 4284, 4607, 4610
21728, 4382, 4380, 4379, 4614
21729, 4478, 4201, 4436, 4547
21730, 4358, 4362, 4588, 4313
21731, 4332, 4458, 4570, 4247
21732, 4307, 4191, 4308, 4232
21733, 4607, 4512, 4241, 4610
21734, 4382, 4175, 4379, 4582
** ... 1163 like lines cut
*MATERIAL, NAME=MAT_SOIL_dat_dap
*ELASTIC
8000.000, 0.300
*DENSITY
1.936799
*SOLID SECTION, ELSET=SOIL_dat_dap, MATERIAL=MAT_SOIL_dat_dap
*MATERIAL, NAME=MAT_SOIL_dat_yeu
*ELASTIC
3450.000, 0.350
*DENSITY
1.558716
*SOLID SECTION, ELSET=SOIL_dat_yeu, MATERIAL=MAT_SOIL_dat_yeu
*MATERIAL, NAME=MAT_SOIL_lop_cung
*ELASTIC
27600.000, 0.350
*DENSITY
1.936799
*SOLID SECTION, ELSET=SOIL_lop_cung, MATERIAL=MAT_SOIL_lop_cung
*MATERIAL, NAME=MAT_CDM_COLUMN
*ELASTIC
40000.000, 0.250
*DENSITY
1.834862
*SOLID SECTION, ELSET=CDM_COLUMN, MATERIAL=MAT_CDM_COLUMN
*NSET, NSET=BASE
17, 18, 19, 20, 215, 216, 217, 218, 219, 220
223, 224, 225, 228, 229, 230, 1314, 1315, 1316, 1317
1318, 1319, 1320, 1321, 1322, 1323, 1324, 1325, 1326, 1327
1328, 1329, 1330, 1331, 1332, 1333, 1334, 1335, 1336, 1337
1338, 1339, 1340, 1341, 1342, 1343, 1344, 1345, 1346, 1347
1348, 1349, 1350, 1351, 1352, 1353, 1354, 1355, 1356, 1357
1358, 1359, 1360, 1361, 1362, 1363, 1364, 1365, 1366, 1367
1368, 1369, 1370, 1371, 1372
*NSET, NSET=SIDE_XMIN
2, 3, 4, 5, 12, 13, 17, 18, 29, 30
31, 32, 33, 34, 71, 72, 73, 74, 75, 76
77, 78, 79, 80, 81, 82, 83, 84, 85, 86
87, 88, 89, 90, 91, 92, 93, 94, 95, 211
212, 213, 214, 215, 216, 217, 238, 239, 240, 241
392, 393, 394, 395, 396, 397, 398, 399, 400, 401
402, 403, 404, 405, 406, 407, 408, 409, 410, 411
412, 413, 414, 415, 416, 417, 418, 419, 420, 421
422, 423, 424, 425, 426, 427, 428, 1284, 1285, 1286
1287, 1288, 1289, 1290, 1291, 1292, 1293
*NSET, NSET=SIDE_XMAX
6, 7, 8, 10, 14, 15, 19, 20, 44, 45
46, 58, 59, 60, 99, 100, 101, 102, 103, 104
105, 106, 107, 108, 109, 113, 114, 115, 116, 117
118, 119, 120, 121, 122, 123, 124, 125, 126, 221
222, 226, 227, 228, 229, 230, 363, 364, 365, 366
558, 559, 560, 561, 562, 563, 564, 565, 566, 567
568, 569, 570, 571, 572, 573, 574, 575, 576, 577
578, 579, 580, 581, 582, 583, 584, 585, 586, 587
588, 589, 590, 591, 592, 593, 594, 1373, 1374, 1375
1376, 1377, 1378, 1379, 1380, 1381, 1382
*NSET, NSET=SIDE_YMIN
2, 3, 6, 7, 12, 14, 17, 19, 35, 36
37, 38, 39, 40, 71, 72, 73, 74, 75, 76
77, 78, 79, 80, 81, 96, 97, 98, 99, 100
101, 102, 103, 104, 105, 106, 107, 108, 109, 211
212, 218, 219, 220, 221, 222, 242, 243, 244, 245
429, 430, 431, 432, 433, 434, 435, 436, 437, 438
439, 440, 441, 442, 443, 444, 445, 446, 447, 448
449, 450, 451, 452, 453, 454, 455, 456, 457, 458
459, 460, 461, 462, 463, 464, 465, 1294, 1295, 1296
1297, 1298, 1299, 1300, 1301, 1302, 1303
*NSET, NSET=SIDE_YMAX
4, 5, 8, 10, 13, 15, 18, 20, 41, 42
43, 55, 56, 57, 82, 83, 84, 85, 86, 87
88, 89, 90, 91, 92, 110, 111, 112, 113, 114
115, 116, 117, 118, 119, 120, 121, 122, 123, 213
214, 223, 224, 225, 226, 227, 301, 302, 303, 304
466, 467, 468, 469, 470, 471, 472, 473, 474, 475
476, 477, 478, 479, 480, 481, 482, 483, 484, 485
486, 487, 488, 489, 490, 491, 492, 493, 494, 495
496, 497, 498, 499, 500, 501, 502, 1304, 1305, 1306
1307, 1308, 1309, 1310, 1311, 1312, 1313
*NSET, NSET=COLTOP
4152, 4154, 4155, 4156, 4157, 4158, 4159, 4607
*SURFACE, NAME=SOIL_INNER, TYPE=ELEMENT
495, S1
409, S1
334, S1
236, S1
579, S1
466, S1
469, S1
301, S1
432, S1
330, S1
488, S3
244, S1
457, S3
196, S4
505, S3
394, S4
403, S3
261, S4
520, S2
240, S2
** ... 1680 like lines cut
*SURFACE, NAME=COL_LATERAL, TYPE=ELEMENT
22611, S3
22541, S3
22403, S4
22403, S1
22373, S3
22373, S1
22542, S2
22536, S4
22424, S3
22420, S2
22510, S1
22374, S3
22492, S1
22388, S1
22517, S1
22381, S1
22498, S3
22390, S2
22411, S4
22370, S1
** ... 876 like lines cut
*SURFACE INTERACTION, NAME=SOIL_COL_INT
*SURFACE BEHAVIOR, PRESSURE-OVERCLOSURE=HARD
*FRICTION
0.1961, 100000.000
*CONTACT PAIR, INTERACTION=SOIL_COL_INT, TYPE=NODE TO SURFACE, ADJUST=0.02
SOIL_INNER, COL_LATERAL
*BOUNDARY
BASE, 1, 3
SIDE_XMIN, 1, 1
SIDE_XMAX, 1, 1
SIDE_YMIN, 2, 2
SIDE_YMAX, 2, 2
*STEP, NLGEOM
*STATIC
*CLOAD
3, 3, -11.428963
4, 3, -12.103696
7, 3, -11.428963
8, 3, -11.968782
9, 3, -0.738879
29, 3, -16.907903
30, 3, -17.782224
31, 3, -16.249087
38, 3, -17.848532
39, 3, -20.512354
40, 3, -17.238141
41, 3, -16.398885
42, 3, -16.194647
43, 3, -16.488822
44, 3, -17.845785
45, 3, -20.125554
46, 3, -17.636563
47, 3, -0.572155
48, 3, -0.753326
49, 3, -0.588311
** ... 68 like lines cut
*NODE FILE
U
*EL FILE
S, E
*END STEP
*STEP, NLGEOM
*STATIC
*CLOAD
3, 3, -8.193558
4, 3, -8.677282
7, 3, -34.665053
8, 3, -36.302371
9, 3, -1.486066
29, 3, -12.121475
30, 3, -12.748285
31, 3, -11.649161
38, 3, -23.130911
39, 3, -38.460664
40, 3, -42.303159
41, 3, -21.252232
42, 3, -30.364962
43, 3, -40.464296
44, 3, -54.127840
45, 3, -61.042581
46, 3, -53.493252
47, 3, -1.132507
48, 3, -1.430309
49, 3, -1.063006
** ... 68 like lines cut
*NODE FILE
U
*EL FILE
S, E
*END STEP
*STEP, NLGEOM
*STATIC
*CLOAD
3, 3, -0.000000
4, 3, -0.000000
7, 3, -57.144814
8, 3, -59.843909
9, 3, -2.064514
29, 3, -0.000000
30, 3, -0.000000
31, 3, -0.000000
38, 3, -22.310666
39, 3, -51.280886
40, 3, -64.643029
41, 3, -20.498607
42, 3, -40.486617
43, 3, -61.833081
44, 3, -89.228925
45, 3, -100.627769
46, 3, -88.182816
47, 3, -1.559299
48, 3, -1.921789
49, 3, -1.384261
** ... 68 like lines cut
*NODE FILE
U
*EL FILE
S, E
*END STEP
*STEP, NLGEOM
*STATIC
*CLOAD
7, 3, -28.572407
8, 3, -29.921955
9, 3, -1.847197
39, 3, -51.280886
40, 3, -43.095353
42, 3, -40.486617
43, 3, -41.222054
44, 3, -44.614462
45, 3, -50.313885
46, 3, -44.091408
47, 3, -1.430388
48, 3, -1.883315
53, 3, -1.702904
54, 3, -1.688192
246, 3, -65.426188
247, 3, -75.482460
252, 3, -65.898975
253, 3, -18.690799
254, 3, -78.078853
255, 3, -11.041580
** ... 28 like lines cut
*NODE FILE
U
*EL FILE
S, E
*END STEP
