** cdm3d ? test_ccx_mc_9col_gd5_wideXneg_su500 ? sinh tu dong, xem scripts/cdm3d/ccx_input.py
** zone=KE  element=C3D4  don vi: kN-m-s (kPa)
*NODE, NSET=NALL
1, -20.000000, -5.800000, 0.000000
2, -20.000000, -5.800000, 0.800000
3, -20.000000, 5.800000, 0.800000
4, -20.000000, 5.800000, 0.000000
5, 5.800000, -5.800000, 0.000000
6, 5.800000, -5.800000, 0.800000
7, 5.800000, 5.800000, 0.800000
8, -1.400000, -1.800000, 0.800000
9, 0.400000, -1.800000, 0.800000
10, 2.200000, -1.800000, 0.800000
11, -1.400000, -0.000000, 0.800000
12, -1.400000, 1.800000, 0.800000
13, 0.400000, -0.000000, 0.800000
14, 2.200000, -0.000000, 0.800000
15, 0.400000, 1.800000, 0.800000
16, 2.200000, 1.800000, 0.800000
17, 5.800000, 5.800000, 0.000000
18, -1.400000, -1.800000, 0.000000
19, 0.400000, -1.800000, 0.000000
20, 2.200000, -1.800000, 0.000000
** ... 29465 like lines cut
*ELEMENT, TYPE=C3D4, ELSET=SOIL_dat_dap
1, 1585, 10469, 1626, 10508
2, 2161, 10475, 10466, 10611
3, 1355, 10502, 2384, 10537
4, 268, 1660, 1485, 10581
5, 2388, 10489, 2404, 10522
6, 2161, 10466, 10532, 10611
7, 2335, 1626, 10469, 10508
8, 2384, 10502, 1815, 10537
9, 10469, 10483, 2089, 10508
10, 2174, 10482, 2387, 10642
11, 2174, 2387, 10481, 10642
12, 1660, 10581, 268, 10599
13, 2132, 2207, 10535, 10605
14, 1623, 10503, 10496, 10532
15, 2087, 10496, 10503, 10532
16, 1768, 10486, 10583, 10606
17, 1623, 10503, 10532, 10611
18, 1396, 10551, 10505, 10600
19, 2383, 1627, 10482, 10566
20, 1768, 10583, 1812, 10606
** ... 5177 like lines cut
*ELEMENT, TYPE=C3D4, ELSET=CDM_COLUMN
5198, 2194, 2419, 2205, 10643
5199, 2207, 2419, 265, 10643
5200, 2205, 2419, 2207, 10643
5201, 2416, 2419, 2194, 10643
5202, 2198, 2196, 2415, 10643
5203, 2415, 2208, 2202, 10643
5204, 2193, 2211, 2203, 10643
5205, 2193, 2203, 2417, 10643
5206, 2214, 2195, 2200, 10643
5207, 2215, 2199, 2195, 10643
5208, 2195, 2416, 2200, 10643
5209, 2194, 2205, 2210, 10643
5210, 2200, 2194, 2213, 10643
5211, 2193, 2199, 2212, 10643
5212, 2200, 2416, 2194, 10643
5213, 2193, 2418, 2199, 10643
5214, 2199, 2418, 2195, 10643
5215, 2203, 2191, 2209, 10643
5216, 2190, 2205, 2207, 10643
5217, 2203, 2209, 2417, 10643
** ... 22103 like lines cut
*ELEMENT, TYPE=C3D4, ELSET=SOIL_dat_yeu
6201, 15627, 15975, 15533, 23462
6202, 17046, 20441, 12193, 21300
6203, 13321, 13133, 18799, 18800
6204, 12414, 15838, 12413, 16461
6205, 12889, 14718, 13461, 24050
6206, 12511, 13565, 17313, 18152
6207, 14364, 15098, 11820, 23202
6208, 14812, 16174, 15625, 17309
6209, 6347, 12777, 6679, 23210
6210, 13017, 15064, 12021, 21267
6211, 8631, 20442, 15439, 22730
6212, 4589, 16846, 4125, 19572
6213, 16247, 22213, 11280, 24238
6214, 11883, 15627, 15533, 23462
6215, 13567, 17564, 15353, 22425
6216, 9179, 15293, 13431, 18940
6217, 14914, 18038, 12610, 21416
6218, 14471, 16046, 12023, 21823
6219, 13234, 17491, 13233, 21048
6220, 16463, 18088, 14005, 18295
** ... 119953 like lines cut
*ELEMENT, TYPE=C3D4, ELSET=SOIL_lop_cung
146127, 26699, 27132, 26241, 28663
146128, 27805, 29188, 29122, 29189
146129, 26263, 27038, 26990, 28907
146130, 25789, 26634, 27048, 27093
146131, 26473, 26519, 26019, 26749
146132, 25765, 26814, 26808, 28114
146133, 25939, 27525, 28212, 28618
146134, 25927, 27479, 28952, 29150
146135, 10119, 27656, 27343, 28676
146136, 25862, 27726, 27769, 28224
146137, 10257, 27531, 3266, 27846
146138, 25890, 27196, 28073, 28096
146139, 26190, 26660, 27874, 28828
146140, 26132, 27489, 26887, 27811
146141, 25927, 27465, 27479, 29150
146142, 2951, 27263, 27334, 27607
146143, 25860, 26345, 27268, 27768
146144, 45, 27249, 27628, 28532
146145, 26027, 27249, 27362, 28371
146146, 25896, 26393, 27004, 27731
** ... 27913 like lines cut
*MATERIAL, NAME=MAT_SOIL_dat_dap
*ELASTIC
8000.000, 0.300
*DENSITY
1.936799
*SOLID SECTION, ELSET=SOIL_dat_dap, MATERIAL=MAT_SOIL_dat_dap
*MATERIAL, NAME=MAT_CDM_COLUMN
*ELASTIC
40000.000, 0.250
*DENSITY
1.834862
*SOLID SECTION, ELSET=CDM_COLUMN, MATERIAL=MAT_CDM_COLUMN
*MATERIAL, NAME=MAT_SOIL_dat_yeu
*ELASTIC
3450.000, 0.350
*MOHR COULOMB
0.000, 0.000, 293.
*MOHR COULOMB HARDENING
500.000, 0., 293.
*DENSITY
1.558716
*SOLID SECTION, ELSET=SOIL_dat_yeu, MATERIAL=MAT_SOIL_dat_yeu
*MATERIAL, NAME=MAT_SOIL_lop_cung
*ELASTIC
27600.000, 0.350
*DENSITY
1.936799
*SOLID SECTION, ELSET=SOIL_lop_cung, MATERIAL=MAT_SOIL_lop_cung
*NSET, NSET=SIDE_XMIN
1, 2, 3, 4, 27, 28, 40, 41, 53, 54
55, 56, 57, 58, 59, 60, 61, 62, 283, 284
285, 286, 287, 288, 289, 290, 291, 292, 293, 294
295, 296, 297, 298, 299, 300, 301, 302, 303, 304
305, 306, 307, 308, 309, 1117, 1118, 1119, 1120, 1121
1122, 1123, 1124, 1125, 1258, 1259, 1260, 1261, 1262, 1263
2484, 2485, 2486, 2487, 2488, 2489, 2490, 2491, 2492, 2493
2494, 2495, 2496, 2497, 2498, 2499, 2500, 2501, 2502, 2503
2504, 2505, 2506, 2507, 2508, 2509, 2510, 2511, 2512, 2513
2514, 2515, 2516, 2517, 2518, 2519, 2520, 2521, 2522, 2523
2524, 2525, 2526, 2527, 2528, 2529, 2530, 2531, 2532, 2533
2534, 2535, 2536, 2537, 2538, 2539, 2540, 2541, 2542, 2543
2544, 2545, 2546, 2547, 2548, 2549, 2550, 2551, 2552, 9623
9624, 9625, 9626, 9627, 9628, 9629, 9630, 9631, 9632, 9633
9634, 9635, 9636
*NSET, NSET=SIDE_YMIN
1, 2, 5, 6, 27, 29, 40, 42, 63, 64
65, 66, 67, 68, 69, 70, 71, 72, 73, 74
75, 76, 77, 78, 79, 80, 81, 82, 83, 84
85, 86, 283, 284, 285, 286, 287, 288, 289, 290
291, 292, 293, 310, 311, 312, 313, 314, 315, 316
317, 318, 319, 320, 321, 322, 323, 324, 325, 326
327, 328, 329, 330, 331, 332, 1117, 1118, 1126, 1127
1128, 1129, 1130, 1131, 1132, 1133, 1134, 1135, 1136, 1137
1138, 1139, 1264, 1265, 1266, 1267, 1268, 1269, 1270, 1271
1272, 1273, 1274, 1275, 1276, 2553, 2554, 2555, 2556, 2557
2558, 2559, 2560, 2561, 2562, 2563, 2564, 2565, 2566, 2567
2568, 2569, 2570, 2571, 2572, 2573, 2574, 2575, 2576, 2577
2578, 2579, 2580, 2581, 2582, 2583, 2584, 2585, 2586, 2587
2588, 2589, 2590, 2591, 2592, 2593, 2594, 2595, 2596, 2597
2598, 2599, 2600, 2601, 2602, 2603, 2604, 2605, 2606, 2607
2608, 2609, 2610, 2611, 2612, 2613, 2614, 2615, 2616, 2617
2618, 2619, 2620, 2621, 2622, 2623, 2624, 2625, 2626, 2627
2628, 2629, 2630, 2631, 2632, 2633, 2634, 2635, 2636, 2637
2638, 2639, 2640, 2641, 2642, 2643, 2644, 2645, 2646, 2647
2648, 2649, 2650, 2651, 2652, 2653, 2654, 2655, 2656, 2657
** ... 9 like lines cut
*NSET, NSET=TOP_SOIL
2, 3, 6, 7, 8, 9, 10, 11, 12, 13
14, 15, 16, 53, 54, 55, 56, 57, 75, 76
77, 78, 79, 80, 81, 82, 83, 84, 85, 86
87, 88, 89, 90, 91, 92, 93, 94, 95, 96
97, 98, 99, 100, 101, 102, 103, 104, 105, 106
107, 108, 109, 110, 111, 112, 113, 114, 115, 116
117, 118, 119, 120, 121, 122, 123, 124, 125, 126
127, 128, 129, 130, 131, 132, 133, 134, 135, 136
137, 138, 139, 140, 141, 142, 143, 144, 145, 146
147, 148, 149, 150, 151, 152, 153, 154, 155, 156
157, 158, 159, 160, 161, 162, 163, 164, 165, 166
167, 168, 169, 170, 171, 172, 173, 174, 175, 1277
1278, 1279, 1280, 1281, 1282, 1283, 1284, 1285, 1286, 1287
1288, 1289, 1290, 1291, 1292, 1293, 1294, 1295, 1296, 1297
1298, 1299, 1300, 1301, 1302, 1303, 1304, 1305, 1306, 1307
1308, 1309, 1310, 1311, 1312, 1313, 1314, 1315, 1316, 1317
1318, 1319, 1320, 1321, 1322, 1323, 1324, 1325, 1326, 1327
1328, 1329, 1330, 1331, 1332, 1333, 1334, 1335, 1336, 1337
1338, 1339, 1340, 1341, 1342, 1343, 1344, 1345, 1346, 1347
1348, 1349, 1350, 1351, 1352, 1353, 1354, 1355, 1356, 1357
** ... 37 like lines cut
*NSET, NSET=SIDE_YMAX
3, 4, 7, 17, 28, 30, 41, 43, 87, 88
89, 90, 91, 92, 93, 94, 95, 96, 97, 98
176, 177, 178, 179, 180, 181, 182, 183, 184, 185
186, 187, 294, 295, 296, 297, 298, 299, 300, 301
302, 303, 304, 333, 334, 335, 336, 337, 338, 339
340, 341, 342, 343, 344, 345, 346, 347, 348, 349
350, 351, 352, 353, 354, 355, 1119, 1120, 1140, 1141
1142, 1143, 1144, 1145, 1146, 1147, 1148, 1149, 1150, 1151
1152, 1153, 1724, 1725, 1726, 1727, 1728, 1729, 1730, 1731
1732, 1733, 1734, 1735, 1736, 2714, 2715, 2716, 2717, 2718
2719, 2720, 2721, 2722, 2723, 2724, 2725, 2726, 2727, 2728
2729, 2730, 2731, 2732, 2733, 2734, 2735, 2736, 2737, 2738
2739, 2740, 2741, 2742, 2743, 2744, 2745, 2746, 2747, 2748
2749, 2750, 2751, 2752, 2753, 2754, 2755, 2756, 2757, 2758
2759, 2760, 2761, 2762, 2763, 2764, 2765, 2766, 2767, 2768
2769, 2770, 2771, 2772, 2773, 2774, 2775, 2776, 2777, 2778
2779, 2780, 2781, 2782, 2783, 2784, 2785, 2786, 2787, 2788
2789, 2790, 2791, 2792, 2793, 2794, 2795, 2796, 2797, 2798
2799, 2800, 2801, 2802, 2803, 2804, 2805, 2806, 2807, 2808
2809, 2810, 2811, 2812, 2813, 2814, 2815, 2816, 2817, 2818
** ... 9 like lines cut
*NSET, NSET=SIDE_XMAX
5, 6, 7, 17, 29, 30, 42, 43, 99, 100
101, 102, 103, 188, 189, 190, 191, 192, 322, 323
324, 325, 326, 327, 328, 329, 330, 331, 332, 345
346, 347, 348, 349, 350, 351, 352, 353, 354, 355
356, 357, 358, 359, 360, 1138, 1139, 1152, 1153, 1154
1155, 1156, 1157, 1158, 2184, 2185, 2186, 2187, 2188, 2189
3318, 3319, 3320, 3321, 3322, 3323, 3324, 3325, 3326, 3327
3328, 3329, 3330, 3331, 3332, 3333, 3334, 3335, 3336, 3337
3338, 3339, 3340, 3341, 3342, 3343, 3344, 3345, 3346, 3347
3348, 3349, 3350, 3351, 3352, 3353, 3354, 3355, 3356, 3357
3358, 3359, 3360, 3361, 3362, 3363, 3364, 3365, 3366, 3367
3368, 3369, 3370, 3371, 3372, 3373, 3374, 3375, 3376, 3377
3378, 3379, 3380, 3381, 3382, 3383, 3384, 3385, 3386, 10162
10163, 10164, 10165, 10166, 10167, 10168, 10169, 10170, 10171, 10172
10173, 10174, 10175
*NSET, NSET=TOP_COLUMN
8, 9, 10, 11, 12, 13, 14, 15, 16, 104
105, 106, 107, 108, 109, 110, 111, 112, 113, 114
115, 116, 117, 118, 119, 120, 121, 122, 123, 124
125, 126, 127, 128, 129, 130, 131, 132, 133, 134
135, 136, 137, 138, 139, 140, 141, 142, 143, 144
145, 146, 147, 148, 149, 150, 151, 152, 153, 154
155, 156, 157, 158, 159, 160, 161, 162, 163, 164
165, 166, 167, 168, 169, 170, 171, 172, 173, 174
175, 2412, 2413, 2414, 2415, 2420, 2421, 2422, 2423, 2428
2429, 2430, 2431, 2436, 2437, 2438, 2439, 2444, 2445, 2446
2447, 2452, 2453, 2454, 2455, 2460, 2461, 2462, 2463, 2468
2469, 2470, 2471, 2476, 2477, 2478, 2479
*NSET, NSET=BASE
40, 41, 42, 43, 1121, 1122, 1123, 1124, 1125, 1126
1127, 1128, 1129, 1130, 1131, 1132, 1133, 1134, 1135, 1136
1137, 1140, 1141, 1142, 1143, 1144, 1145, 1146, 1147, 1148
1149, 1150, 1151, 1154, 1155, 1156, 1157, 1158, 9693, 9694
9695, 9696, 9697, 9698, 9699, 9700, 9701, 9702, 9703, 9704
9705, 9706, 9707, 9708, 9709, 9710, 9711, 9712, 9713, 9714
9715, 9716, 9717, 9718, 9719, 9720, 9721, 9722, 9723, 9724
9725, 9726, 9727, 9728, 9729, 9730, 9731, 9732, 9733, 9734
9735, 9736, 9737, 9738, 9739, 9740, 9741, 9742, 9743, 9744
9745, 9746, 9747, 9748, 9749, 9750, 9751, 9752, 9753, 9754
9755, 9756, 9757, 9758, 9759, 9760, 9761, 9762, 9763, 9764
9765, 9766, 9767, 9768, 9769, 9770, 9771, 9772, 9773, 9774
9775, 9776, 9777, 9778, 9779, 9780, 9781, 9782, 9783, 9784
9785, 9786, 9787, 9788, 9789, 9790, 9791, 9792, 9793, 9794
9795, 9796, 9797, 9798, 9799, 9800, 9801, 9802, 9803, 9804
9805, 9806, 9807, 9808, 9809, 9810, 9811, 9812, 9813, 9814
9815, 9816, 9817, 9818, 9819, 9820, 9821, 9822, 9823, 9824
9825, 9826, 9827, 9828, 9829, 9830, 9831, 9832, 9833, 9834
9835, 9836, 9837, 9838, 9839, 9840, 9841, 9842, 9843, 9844
9845, 9846, 9847, 9848, 9849, 9850, 9851, 9852, 9853, 9854
** ... 31 like lines cut
*BOUNDARY
BASE, 1, 3
SIDE_XMIN, 1, 1
SIDE_XMAX, 1, 1
SIDE_YMIN, 2, 2
SIDE_YMAX, 2, 2
*STEP
*STATIC
*DLOAD
1385, P3, 40.800000
1652, P1, 40.800000
1712, P3, 40.800000
1871, P2, 40.800000
4416, P1, 40.800000
4549, P1, 40.800000
2956, P4, 40.800000
3017, P3, 40.800000
4427, P1, 40.800000
4318, P3, 40.800000
3170, P4, 40.800000
2942, P4, 40.800000
4265, P3, 40.800000
4246, P1, 40.800000
3577, P4, 40.800000
4523, P3, 40.800000
4486, P1, 40.800000
3512, P4, 40.800000
3325, P3, 40.800000
4599, P1, 40.800000
** ... 506 like lines cut
*NODE FILE
U
*EL FILE
S, E
*END STEP
