** so sanh doi chieu dan hoi CalculiX vs OpenSeesPy
*NODE, NSET=NALL
1, -2.400000, -2.400000, 0.000000
2, -2.400000, -2.400000, 0.800000
3, -2.400000, 2.400000, 0.800000
4, -2.400000, 2.400000, 0.000000
5, 2.400000, -2.400000, 0.000000
6, 2.400000, -2.400000, 0.800000
7, 2.400000, 2.400000, 0.800000
8, 0.400000, -0.000000, 0.800000
9, 2.400000, 2.400000, 0.000000
10, 0.400000, -0.000000, 0.000000
11, -2.400000, -2.400000, -5.000000
12, -2.400000, 2.400000, -5.000000
13, 2.400000, -2.400000, -5.000000
14, 2.400000, 2.400000, -5.000000
15, 0.400000, -0.000000, -5.000000
16, -2.400000, -2.400000, -7.000000
17, -2.400000, 2.400000, -7.000000
18, 2.400000, -2.400000, -7.000000
19, 2.400000, 2.400000, -7.000000
20, 0.400000, -0.000000, -6.000000
** ... 1208 like lines cut
*ELEMENT, TYPE=C3D4, ELSET=SOIL_dat_dap
1, 214, 204, 728, 729
2, 278, 288, 728, 729
3, 181, 733, 210, 734
4, 284, 733, 255, 734
5, 183, 735, 257, 738
6, 207, 261, 281, 739
7, 257, 735, 292, 738
8, 185, 261, 207, 739
9, 268, 194, 182, 728
10, 281, 262, 207, 739
11, 181, 255, 733, 734
12, 186, 207, 262, 739
13, 185, 738, 261, 739
14, 288, 194, 268, 728
15, 186, 262, 734, 739
16, 282, 734, 262, 739
17, 208, 186, 734, 739
18, 217, 732, 731, 737
19, 214, 728, 288, 729
20, 211, 733, 174, 742
** ... 718 like lines cut
*ELEMENT, TYPE=C3D4, ELSET=CDM_COLUMN
739, 67, 309, 325, 743
740, 67, 333, 323, 743
741, 323, 333, 331, 743
742, 323, 331, 319, 743
743, 67, 325, 333, 743
744, 324, 322, 309, 743
745, 309, 321, 325, 743
746, 331, 333, 330, 743
747, 330, 317, 311, 743
748, 330, 321, 317, 743
749, 332, 331, 330, 743
750, 324, 329, 322, 743
751, 312, 319, 331, 743
752, 326, 322, 329, 743
753, 309, 68, 324, 743
754, 333, 321, 330, 743
755, 326, 328, 315, 743
756, 333, 325, 321, 743
757, 332, 330, 311, 743
758, 316, 328, 327, 743
** ... 552 like lines cut
*ELEMENT, TYPE=C3D4, ELSET=SOIL_dat_yeu
831, 570, 848, 872, 881
832, 523, 548, 951, 1050
833, 1077, 1082, 770, 1083
834, 570, 848, 569, 872
835, 583, 960, 836, 1045
836, 564, 866, 813, 1034
837, 379, 752, 804, 993
838, 537, 944, 971, 991
839, 776, 852, 824, 1020
840, 480, 763, 837, 900
841, 292, 781, 926, 1029
842, 811, 792, 965, 1087
843, 764, 900, 857, 906
844, 828, 924, 801, 1060
845, 399, 755, 779, 809
846, 849, 872, 569, 951
847, 767, 806, 797, 938
848, 755, 809, 785, 917
849, 575, 959, 868, 1004
850, 827, 801, 941, 1085
** ... 3414 like lines cut
*ELEMENT, TYPE=C3D4, ELSET=SOIL_lop_cung
4631, 716, 711, 714, 1114
4632, 1106, 1211, 1167, 1216
4633, 637, 1136, 1123, 1161
4634, 1110, 1118, 1104, 1219
4635, 465, 716, 1127, 1128
4636, 1110, 1156, 1118, 1219
4637, 1107, 1188, 1140, 1200
4638, 655, 1120, 664, 1149
4639, 145, 1126, 1122, 1130
4640, 708, 721, 142, 1156
4641, 1146, 1186, 1125, 1202
4642, 687, 1159, 1120, 1211
4643, 1106, 1157, 1163, 1210
4644, 403, 1132, 720, 1156
4645, 1120, 1126, 664, 1149
4646, 637, 1123, 1136, 1148
4647, 1152, 1179, 1141, 1181
4648, 149, 1124, 1134, 1177
4649, 1110, 1104, 1147, 1219
4650, 150, 20, 1123, 1149
** ... 1484 like lines cut
*MATERIAL, NAME=MAT_SOIL_dat_dap
*ELASTIC
8000.000, 0.300
*DENSITY
1.936799
*SOLID SECTION, ELSET=SOIL_dat_dap, MATERIAL=MAT_SOIL_dat_dap
*MATERIAL, NAME=MAT_CDM_COLUMN
*ELASTIC
40000.000, 0.250
*DENSITY
1.834862
*SOLID SECTION, ELSET=CDM_COLUMN, MATERIAL=MAT_CDM_COLUMN
*MATERIAL, NAME=MAT_SOIL_dat_yeu
*ELASTIC
3450.000, 0.350
*DENSITY
1.630989
*SOLID SECTION, ELSET=SOIL_dat_yeu, MATERIAL=MAT_SOIL_dat_yeu
*MATERIAL, NAME=MAT_SOIL_lop_cung
*ELASTIC
27600.000, 0.350
*DENSITY
1.936799
*SOLID SECTION, ELSET=SOIL_lop_cung, MATERIAL=MAT_SOIL_lop_cung
*NSET, NSET=SIDE_XMIN
1, 2, 3, 4, 11, 12, 16, 17, 21, 22
23, 24, 25, 26, 27, 28, 69, 70, 71, 72
73, 74, 75, 76, 77, 78, 79, 80, 122, 123
124, 125, 126, 127, 151, 152, 153, 154, 155, 334
335, 336, 337, 338, 339, 340, 341, 342, 343, 344
345, 346, 347, 348, 349, 350, 351, 352, 353, 354
355, 600, 601, 602, 603, 604, 605, 606
*NSET, NSET=SIDE_YMIN
1, 2, 5, 6, 11, 13, 16, 18, 29, 30
31, 32, 33, 34, 35, 36, 69, 70, 71, 72
81, 82, 83, 84, 85, 86, 87, 88, 122, 128
129, 130, 131, 132, 156, 157, 158, 159, 160, 356
357, 358, 359, 360, 361, 362, 363, 364, 365, 366
367, 368, 369, 370, 371, 372, 373, 374, 375, 376
377, 607, 608, 609, 610, 611, 612, 613
*NSET, NSET=TOP_SOIL
2, 3, 6, 7, 8, 21, 22, 23, 24, 33
34, 35, 36, 37, 38, 39, 40, 41, 42, 43
44, 45, 46, 47, 48, 49, 50, 51, 161, 162
163, 164, 165, 166, 167, 168, 169, 170, 171, 172
173, 174, 175, 176, 177, 178, 179, 180, 181, 182
183, 184, 185, 186, 187, 188, 189, 190, 191, 192
193, 194, 195, 196, 197, 198, 199, 200, 201, 202
203, 204, 205, 206, 207, 208, 209, 210, 211, 212
213, 214, 215, 216, 217, 218, 219, 220, 221, 222
223, 224, 225, 226, 227, 228, 229
*NSET, NSET=SIDE_YMAX
3, 4, 7, 9, 12, 14, 17, 19, 37, 38
39, 40, 52, 53, 54, 55, 73, 74, 75, 76
89, 90, 91, 92, 93, 94, 95, 96, 123, 133
134, 135, 136, 137, 230, 231, 232, 233, 234, 378
379, 380, 381, 382, 383, 384, 385, 386, 387, 388
389, 390, 391, 392, 393, 394, 395, 396, 397, 398
399, 614, 615, 616, 617, 618, 619, 620
*NSET, NSET=SIDE_XMAX
5, 6, 7, 9, 13, 14, 18, 19, 41, 42
43, 44, 56, 57, 58, 59, 85, 86, 87, 88
93, 94, 95, 96, 97, 98, 99, 100, 132, 137
138, 139, 140, 141, 304, 305, 306, 307, 308, 469
470, 471, 472, 473, 474, 475, 476, 477, 478, 479
480, 481, 482, 483, 484, 485, 486, 487, 488, 489
490, 694, 695, 696, 697, 698, 699, 700
*NSET, NSET=TOP_COLUMN
8, 45, 46, 47, 48, 49, 50, 51, 326, 327
328, 329
*NSET, NSET=BASE
16, 17, 18, 19, 124, 125, 126, 127, 128, 129
130, 131, 133, 134, 135, 136, 138, 139, 140, 141
621, 622, 623, 624, 625, 626, 627, 628, 629, 630
631, 632, 633, 634, 635, 636, 637, 638, 639, 640
641, 642, 643, 644, 645, 646, 647, 648, 649, 650
651, 652, 653, 654, 655, 656, 657, 658, 659, 660
661, 662, 663, 664, 665, 666, 667, 668, 669, 670
671, 672, 673, 674, 675, 676, 677, 678, 679, 680
681, 682, 683, 684, 685, 686, 687, 688, 689, 690
691, 692, 693
*BOUNDARY
BASE, 1, 3
SIDE_XMIN, 1, 1
SIDE_XMAX, 1, 1
SIDE_YMIN, 2, 2
SIDE_YMAX, 2, 2
*STEP
*STATIC
*CLOAD
8, 1, 4.166667
45, 1, 4.166667
46, 1, 4.166667
47, 1, 4.166667
48, 1, 4.166667
49, 1, 4.166667
50, 1, 4.166667
51, 1, 4.166667
326, 1, 4.166667
327, 1, 4.166667
328, 1, 4.166667
329, 1, 4.166667
*NODE FILE
U
*END STEP
