** cdm3d ? test_ccx_mc_9col_wideY ? sinh tu dong, xem scripts/cdm3d/ccx_input.py
** zone=KE  element=C3D4  don vi: kN-m-s (kPa)
*NODE, NSET=NALL
1, -5.800000, -10.000000, 0.000000
2, -5.800000, -10.000000, 0.800000
3, -5.800000, 10.000000, 0.800000
4, -5.800000, 10.000000, 0.000000
5, 5.800000, -10.000000, 0.000000
6, 5.800000, -10.000000, 0.800000
7, 5.800000, 10.000000, 0.800000
8, -1.400000, -1.800000, 0.800000
9, 0.400000, -1.800000, 0.800000
10, 2.200000, -1.800000, 0.800000
11, -1.400000, -0.000000, 0.800000
12, -1.400000, 1.800000, 0.800000
13, 0.400000, -0.000000, 0.800000
14, 2.200000, -0.000000, 0.800000
15, 0.400000, 1.800000, 0.800000
16, 2.200000, 1.800000, 0.800000
17, 5.800000, 10.000000, 0.000000
18, -1.400000, -1.800000, 0.000000
19, 0.400000, -1.800000, 0.000000
20, 2.200000, -1.800000, 0.000000
** ... 29234 like lines cut
*ELEMENT, TYPE=C3D4, ELSET=SOIL_dat_dap
1, 1576, 1504, 1653, 10287
2, 1367, 10298, 10293, 10329
3, 2274, 1659, 1249, 10351
4, 2296, 2315, 2085, 10310
5, 1512, 2314, 10326, 10343
6, 2193, 1292, 10318, 10388
7, 1294, 10309, 10348, 10381
8, 2315, 2085, 10310, 10323
9, 2265, 10309, 2093, 10336
10, 1488, 1268, 10370, 10383
11, 1280, 2209, 10293, 10428
12, 1645, 10309, 2265, 10336
13, 1656, 2315, 10310, 10323
14, 2300, 1656, 2315, 10310
15, 2186, 10338, 1642, 10339
16, 2188, 10327, 1398, 10328
17, 1836, 10327, 2189, 10328
18, 2187, 2087, 10338, 10339
19, 1628, 1629, 10326, 10343
20, 1876, 10288, 2242, 10399
** ... 4993 like lines cut
*ELEMENT, TYPE=C3D4, ELSET=CDM_COLUMN
5014, 2130, 2349, 2124, 10463
5015, 2349, 2125, 2129, 10463
5016, 2349, 2130, 2125, 10463
5017, 2349, 2347, 2124, 10463
5018, 2349, 2129, 2346, 10463
5019, 2126, 2345, 2128, 10463
5020, 2132, 2345, 2138, 10463
5021, 2141, 2133, 2123, 10463
5022, 2123, 2133, 2346, 10463
5023, 253, 2137, 2348, 10463
5024, 2144, 2125, 2130, 10463
5025, 2125, 2145, 2129, 10463
5026, 2124, 2135, 2140, 10463
5027, 2124, 2347, 2135, 10463
5028, 2130, 2124, 2143, 10463
5029, 2142, 2123, 2129, 10463
5030, 2133, 2139, 2348, 10463
5031, 2129, 2123, 2346, 10463
5032, 2347, 2137, 2135, 10463
5033, 2121, 2139, 2133, 10463
** ... 22044 like lines cut
*ELEMENT, TYPE=C3D4, ELSET=SOIL_dat_yeu
6017, 15484, 15823, 15378, 23196
6018, 3979, 14003, 15955, 21744
6019, 12651, 17363, 22342, 23277
6020, 3894, 13967, 16942, 23115
6021, 13090, 14261, 8485, 20464
6022, 12291, 18188, 6302, 21290
6023, 13300, 22054, 16181, 24794
6024, 14650, 16027, 15482, 17142
6025, 12289, 14487, 21899, 23826
6026, 12808, 18209, 17175, 23629
6027, 12808, 17175, 11047, 23629
6028, 4488, 14602, 12673, 17422
6029, 14995, 19578, 13103, 20646
6030, 11425, 13934, 11321, 21830
6031, 13053, 13391, 8906, 20165
6032, 3968, 4432, 16689, 19347
6033, 5954, 14042, 16653, 18631
6034, 16087, 21890, 11112, 23986
6035, 11674, 15484, 15378, 23196
6036, 13403, 17366, 15203, 22104
** ... 119577 like lines cut
*ELEMENT, TYPE=C3D4, ELSET=SOIL_lop_cung
145506, 26247, 28250, 27803, 28689
145507, 26520, 26722, 25977, 26890
145508, 26270, 25859, 27292, 28773
145509, 27314, 27588, 27073, 28605
145510, 26040, 26424, 27007, 28286
145511, 27454, 27596, 26343, 28266
145512, 26536, 26985, 9960, 27811
145513, 25659, 26656, 26192, 26971
145514, 26247, 27220, 27803, 28250
145515, 26283, 26548, 25698, 26768
145516, 9941, 26742, 26085, 26989
145517, 26044, 28134, 27590, 28713
145518, 9927, 27185, 26728, 28970
145519, 25614, 25979, 26541, 27981
145520, 25589, 26638, 26276, 27321
145521, 25744, 26639, 26100, 27430
145522, 26101, 26497, 25856, 27157
145523, 26692, 26693, 25915, 27357
145524, 25649, 26555, 26123, 26979
145525, 10031, 26701, 26807, 27154
** ... 27709 like lines cut
*MATERIAL, NAME=MAT_SOIL_dat_dap
*ELASTIC
8000.000, 0.300
*DENSITY
1.936799
*SOLID SECTION, ELSET=SOIL_dat_dap, MATERIAL=MAT_SOIL_dat_dap
*MATERIAL, NAME=MAT_CDM_COLUMN
*ELASTIC
40000.000, 0.250
*DENSITY
1.834862
*SOLID SECTION, ELSET=CDM_COLUMN, MATERIAL=MAT_CDM_COLUMN
*MATERIAL, NAME=MAT_SOIL_dat_yeu
*ELASTIC
3450.000, 0.350
*MOHR COULOMB
0.000, 0.000, 293.
*MOHR COULOMB HARDENING
12.938, 0., 293.
*DENSITY
1.558716
*SOLID SECTION, ELSET=SOIL_dat_yeu, MATERIAL=MAT_SOIL_dat_yeu
*MATERIAL, NAME=MAT_SOIL_lop_cung
*ELASTIC
27600.000, 0.350
*DENSITY
1.936799
*SOLID SECTION, ELSET=SOIL_lop_cung, MATERIAL=MAT_SOIL_lop_cung
*NSET, NSET=SIDE_XMIN
1, 2, 3, 4, 27, 28, 40, 41, 53, 54
55, 56, 57, 58, 59, 60, 61, 62, 63, 64
65, 66, 67, 68, 69, 70, 271, 272, 273, 274
275, 276, 277, 278, 279, 280, 281, 282, 283, 284
285, 286, 287, 288, 289, 290, 291, 292, 293, 294
295, 296, 297, 298, 299, 300, 301, 1099, 1100, 1101
1102, 1103, 1104, 1105, 1106, 1107, 1108, 1109, 1110, 1111
2414, 2415, 2416, 2417, 2418, 2419, 2420, 2421, 2422, 2423
2424, 2425, 2426, 2427, 2428, 2429, 2430, 2431, 2432, 2433
2434, 2435, 2436, 2437, 2438, 2439, 2440, 2441, 2442, 2443
2444, 2445, 2446, 2447, 2448, 2449, 2450, 2451, 2452, 2453
2454, 2455, 2456, 2457, 2458, 2459, 2460, 2461, 2462, 2463
2464, 2465, 2466, 2467, 2468, 2469, 2470, 2471, 2472, 2473
2474, 2475, 2476, 2477, 2478, 2479, 2480, 2481, 2482, 2483
2484, 2485, 2486, 2487, 2488, 2489, 2490, 2491, 2492, 2493
2494, 2495, 2496, 2497, 2498, 2499, 2500, 2501, 2502, 2503
2504, 2505, 2506, 2507, 2508, 2509, 2510, 2511, 2512, 2513
2514, 2515, 2516, 2517, 2518, 2519, 2520, 2521, 2522, 2523
2524, 2525, 2526, 2527, 2528, 2529, 2530, 2531, 2532, 2533
2534, 9466, 9467, 9468, 9469, 9470, 9471, 9472, 9473, 9474
9475, 9476, 9477, 9478, 9479, 9480, 9481, 9482, 9483, 9484
9485, 9486, 9487
*NSET, NSET=SIDE_YMIN
1, 2, 5, 6, 27, 29, 40, 42, 71, 72
73, 74, 75, 76, 77, 78, 79, 80, 271, 272
273, 274, 275, 276, 277, 278, 279, 280, 281, 302
303, 304, 305, 306, 307, 308, 309, 310, 311, 312
313, 314, 315, 316, 317, 1099, 1100, 1112, 1113, 1114
1115, 1116, 1117, 1118, 1234, 1235, 1236, 1237, 1238, 1239
2535, 2536, 2537, 2538, 2539, 2540, 2541, 2542, 2543, 2544
2545, 2546, 2547, 2548, 2549, 2550, 2551, 2552, 2553, 2554
2555, 2556, 2557, 2558, 2559, 2560, 2561, 2562, 2563, 2564
2565, 2566, 2567, 2568, 2569, 2570, 2571, 2572, 2573, 2574
2575, 2576, 2577, 2578, 2579, 2580, 2581, 2582, 2583, 2584
2585, 2586, 2587, 2588, 2589, 2590, 2591, 2592, 2593, 2594
2595, 2596, 2597, 2598, 2599, 2600, 2601, 2602, 2603, 9488
9489, 9490, 9491, 9492, 9493, 9494, 9495, 9496, 9497, 9498
9499, 9500, 9501
*NSET, NSET=TOP_SOIL
2, 3, 6, 7, 8, 9, 10, 11, 12, 13
14, 15, 16, 53, 54, 55, 56, 57, 58, 59
60, 61, 76, 77, 78, 79, 80, 81, 82, 83
84, 85, 86, 87, 88, 89, 90, 91, 92, 93
94, 95, 96, 97, 98, 99, 100, 101, 102, 103
104, 105, 106, 107, 108, 109, 110, 111, 112, 113
114, 115, 116, 117, 118, 119, 120, 121, 122, 123
124, 125, 126, 127, 128, 129, 130, 131, 132, 133
134, 135, 136, 137, 138, 139, 140, 141, 142, 143
144, 145, 146, 147, 148, 149, 150, 151, 152, 153
154, 155, 156, 157, 158, 159, 160, 161, 162, 163
164, 165, 166, 1240, 1241, 1242, 1243, 1244, 1245, 1246
1247, 1248, 1249, 1250, 1251, 1252, 1253, 1254, 1255, 1256
1257, 1258, 1259, 1260, 1261, 1262, 1263, 1264, 1265, 1266
1267, 1268, 1269, 1270, 1271, 1272, 1273, 1274, 1275, 1276
1277, 1278, 1279, 1280, 1281, 1282, 1283, 1284, 1285, 1286
1287, 1288, 1289, 1290, 1291, 1292, 1293, 1294, 1295, 1296
1297, 1298, 1299, 1300, 1301, 1302, 1303, 1304, 1305, 1306
1307, 1308, 1309, 1310, 1311, 1312, 1313, 1314, 1315, 1316
1317, 1318, 1319, 1320, 1321, 1322, 1323, 1324, 1325, 1326
** ... 35 like lines cut
*NSET, NSET=SIDE_YMAX
3, 4, 7, 17, 28, 30, 41, 43, 81, 82
83, 84, 85, 167, 168, 169, 170, 171, 282, 283
284, 285, 286, 287, 288, 289, 290, 291, 292, 318
319, 320, 321, 322, 323, 324, 325, 326, 327, 328
329, 330, 331, 332, 333, 1101, 1102, 1119, 1120, 1121
1122, 1123, 1124, 1125, 1674, 1675, 1676, 1677, 1678, 1679
2604, 2605, 2606, 2607, 2608, 2609, 2610, 2611, 2612, 2613
2614, 2615, 2616, 2617, 2618, 2619, 2620, 2621, 2622, 2623
2624, 2625, 2626, 2627, 2628, 2629, 2630, 2631, 2632, 2633
2634, 2635, 2636, 2637, 2638, 2639, 2640, 2641, 2642, 2643
2644, 2645, 2646, 2647, 2648, 2649, 2650, 2651, 2652, 2653
2654, 2655, 2656, 2657, 2658, 2659, 2660, 2661, 2662, 2663
2664, 2665, 2666, 2667, 2668, 2669, 2670, 2671, 2672, 9502
9503, 9504, 9505, 9506, 9507, 9508, 9509, 9510, 9511, 9512
9513, 9514, 9515
*NSET, NSET=SIDE_XMAX
5, 6, 7, 17, 29, 30, 42, 43, 86, 87
88, 89, 90, 91, 92, 93, 94, 172, 173, 174
175, 176, 177, 178, 179, 180, 307, 308, 309, 310
311, 312, 313, 314, 315, 316, 317, 323, 324, 325
326, 327, 328, 329, 330, 331, 332, 333, 334, 335
336, 337, 338, 339, 340, 341, 342, 1117, 1118, 1124
1125, 1126, 1127, 1128, 1129, 1130, 1131, 1132, 1133, 1134
3109, 3110, 3111, 3112, 3113, 3114, 3115, 3116, 3117, 3118
3119, 3120, 3121, 3122, 3123, 3124, 3125, 3126, 3127, 3128
3129, 3130, 3131, 3132, 3133, 3134, 3135, 3136, 3137, 3138
3139, 3140, 3141, 3142, 3143, 3144, 3145, 3146, 3147, 3148
3149, 3150, 3151, 3152, 3153, 3154, 3155, 3156, 3157, 3158
3159, 3160, 3161, 3162, 3163, 3164, 3165, 3166, 3167, 3168
3169, 3170, 3171, 3172, 3173, 3174, 3175, 3176, 3177, 3178
3179, 3180, 3181, 3182, 3183, 3184, 3185, 3186, 3187, 3188
3189, 3190, 3191, 3192, 3193, 3194, 3195, 3196, 3197, 3198
3199, 3200, 3201, 3202, 3203, 3204, 3205, 3206, 3207, 3208
3209, 3210, 3211, 3212, 3213, 3214, 3215, 3216, 3217, 3218
3219, 3220, 3221, 3222, 3223, 3224, 3225, 3226, 3227, 3228
3229, 9974, 9975, 9976, 9977, 9978, 9979, 9980, 9981, 9982
9983, 9984, 9985, 9986, 9987, 9988, 9989, 9990, 9991, 9992
9993, 9994, 9995
*NSET, NSET=TOP_COLUMN
8, 9, 10, 11, 12, 13, 14, 15, 16, 95
96, 97, 98, 99, 100, 101, 102, 103, 104, 105
106, 107, 108, 109, 110, 111, 112, 113, 114, 115
116, 117, 118, 119, 120, 121, 122, 123, 124, 125
126, 127, 128, 129, 130, 131, 132, 133, 134, 135
136, 137, 138, 139, 140, 141, 142, 143, 144, 145
146, 147, 148, 149, 150, 151, 152, 153, 154, 155
156, 157, 158, 159, 160, 161, 162, 163, 164, 165
166, 2342, 2343, 2344, 2345, 2350, 2351, 2352, 2353, 2358
2359, 2360, 2361, 2366, 2367, 2368, 2369, 2374, 2375, 2376
2377, 2382, 2383, 2384, 2385, 2390, 2391, 2392, 2393, 2398
2399, 2400, 2401, 2406, 2407, 2408, 2409
*NSET, NSET=BASE
40, 41, 42, 43, 1103, 1104, 1105, 1106, 1107, 1108
1109, 1110, 1111, 1112, 1113, 1114, 1115, 1116, 1119, 1120
1121, 1122, 1123, 1126, 1127, 1128, 1129, 1130, 1131, 1132
1133, 1134, 9516, 9517, 9518, 9519, 9520, 9521, 9522, 9523
9524, 9525, 9526, 9527, 9528, 9529, 9530, 9531, 9532, 9533
9534, 9535, 9536, 9537, 9538, 9539, 9540, 9541, 9542, 9543
9544, 9545, 9546, 9547, 9548, 9549, 9550, 9551, 9552, 9553
9554, 9555, 9556, 9557, 9558, 9559, 9560, 9561, 9562, 9563
9564, 9565, 9566, 9567, 9568, 9569, 9570, 9571, 9572, 9573
9574, 9575, 9576, 9577, 9578, 9579, 9580, 9581, 9582, 9583
9584, 9585, 9586, 9587, 9588, 9589, 9590, 9591, 9592, 9593
9594, 9595, 9596, 9597, 9598, 9599, 9600, 9601, 9602, 9603
9604, 9605, 9606, 9607, 9608, 9609, 9610, 9611, 9612, 9613
9614, 9615, 9616, 9617, 9618, 9619, 9620, 9621, 9622, 9623
9624, 9625, 9626, 9627, 9628, 9629, 9630, 9631, 9632, 9633
9634, 9635, 9636, 9637, 9638, 9639, 9640, 9641, 9642, 9643
9644, 9645, 9646, 9647, 9648, 9649, 9650, 9651, 9652, 9653
9654, 9655, 9656, 9657, 9658, 9659, 9660, 9661, 9662, 9663
9664, 9665, 9666, 9667, 9668, 9669, 9670, 9671, 9672, 9673
9674, 9675, 9676, 9677, 9678, 9679, 9680, 9681, 9682, 9683
** ... 29 like lines cut
*BOUNDARY
BASE, 1, 3
SIDE_XMIN, 1, 1
SIDE_XMAX, 1, 1
SIDE_YMIN, 2, 2
SIDE_YMAX, 2, 2
*NSET, NSET=ORPHAN
2342, 2343, 2344, 2345, 2346, 2347, 2348, 2349, 2350, 2351
2352, 2353, 2354, 2355, 2356, 2357, 2358, 2359, 2360, 2361
2362, 2363, 2364, 2365, 2366, 2367, 2368, 2369, 2370, 2371
2372, 2373, 2374, 2375, 2376, 2377, 2378, 2379, 2380, 2381
2382, 2383, 2384, 2385, 2386, 2387, 2388, 2389, 2390, 2391
2392, 2393, 2394, 2395, 2396, 2397, 2398, 2399, 2400, 2401
2402, 2403, 2404, 2405, 2406, 2407, 2408, 2409, 2410, 2411
2412, 2413, 9430, 9431, 9432, 9433, 9434, 9435, 9436, 9437
9438, 9439, 9440, 9441, 9442, 9443, 9444, 9445, 9446, 9447
9448, 9449, 9450, 9451, 9452, 9453, 9454, 9455, 9456, 9457
9458, 9459, 9460, 9461, 9462, 9463, 9464, 9465, 10463, 10464
10465, 10466, 10467, 10468, 10469, 10470, 10471, 24980, 24981, 24982
24983, 24984, 24985, 24986, 24987, 24988, 24989, 24990, 24991, 24992
24993, 24994, 24995, 24996, 24997, 24998, 24999, 25000, 25001, 25002
25003, 25004, 25005, 25006, 25007, 25008, 25009, 25010, 25011, 25012
25013, 25014, 25015, 25016, 25017, 25018, 25019, 25020, 25021, 25022
25023, 25024, 25025, 25026, 25027, 25028, 25029, 25030, 25031, 25032
25033, 25034, 25035, 25036, 25037, 25038, 25039, 25040, 25041, 25042
25043, 25044, 25045, 25046, 25047, 25048, 25049, 25050, 25051, 25052
25053, 25054, 25055, 25056, 25057, 25058, 25059, 25060, 25061, 25062
** ... 49 like lines cut
*STEP
*STATIC
*NODE FILE
U
*END STEP
*STEP, NLGEOM
*STATIC
*MODEL CHANGE, TYPE=ELEMENT, REMOVE
CDM_COLUMN
*BOUNDARY
ORPHAN, 1, 3
*NODE FILE
U
*END STEP
*STEP, NLGEOM
*STATIC
*MODEL CHANGE, TYPE=ELEMENT, ADD
CDM_COLUMN
*BOUNDARY, OP=NEW
BASE, 1, 3
SIDE_XMIN, 1, 1
SIDE_XMAX, 1, 1
SIDE_YMIN, 2, 2
SIDE_YMAX, 2, 2
*NODE FILE
U
*END STEP
*STEP, NLGEOM
*STATIC
*DLOAD
3624, P3, 16.320000
1575, P3, 16.320000
3623, P1, 16.320000
1911, P1, 16.320000
1856, P3, 16.320000
4179, P3, 16.320000
1578, P3, 16.320000
4289, P4, 16.320000
4534, P2, 16.320000
4657, P1, 16.320000
3138, P4, 16.320000
3245, P3, 16.320000
4580, P2, 16.320000
4238, P1, 16.320000
3052, P3, 16.320000
3217, P4, 16.320000
4306, P3, 16.320000
4418, P3, 16.320000
3058, P2, 16.320000
3153, P4, 16.320000
** ... 1112 like lines cut
*NODE FILE
U
*EL FILE
S, E
*END STEP
*STEP, NLGEOM
*STATIC
*DLOAD
3624, P3, 20.414290
1575, P3, 21.645325
3623, P1, 20.414290
1911, P1, 21.645325
1856, P3, 39.560312
4179, P3, 40.791346
1578, P3, 39.565805
4289, P4, 40.796840
4534, P2, 27.943458
4657, P1, 27.926219
3138, P4, 28.185026
3245, P3, 28.167787
4580, P2, 31.373304
4238, P1, 31.428606
3052, P3, 31.665342
3217, P4, 31.610041
4306, P3, 34.849548
4418, P3, 34.836452
3058, P2, 35.081501
3153, P4, 35.094597
** ... 1112 like lines cut
*NODE FILE
U
*EL FILE
S, E
*END STEP
*STEP, NLGEOM
*STATIC
*DLOAD
3624, P3, 17.518377
1575, P3, 20.332170
3623, P1, 17.518377
1911, P1, 20.332170
1856, P3, 61.280713
4179, P3, 64.094506
1578, P3, 61.293269
4289, P4, 64.107062
4534, P2, 34.727904
4657, P1, 34.688501
3138, P4, 35.280059
3245, P3, 35.240657
4580, P2, 42.567553
4238, P1, 42.693956
3052, P3, 43.235067
3217, P4, 43.108664
4306, P3, 50.513253
4418, P3, 50.483320
3058, P2, 51.043431
3153, P4, 51.073364
** ... 1112 like lines cut
*NODE FILE
U
*EL FILE
S, E
*END STEP
*STEP, NLGEOM
*STATIC
*DLOAD
1856, P3, 40.800000
4179, P3, 40.800000
1578, P3, 40.800000
4289, P4, 40.800000
4580, P2, 40.800000
4238, P1, 40.800000
3052, P3, 40.800000
3217, P4, 40.800000
4306, P3, 40.800000
4418, P3, 40.800000
3058, P2, 40.800000
3153, P4, 40.800000
4294, P2, 40.800000
4280, P3, 40.800000
3629, P3, 40.800000
4505, P1, 40.800000
4500, P1, 40.800000
3806, P1, 40.800000
3826, P1, 40.800000
4627, P1, 40.800000
** ... 543 like lines cut
*NODE FILE
U
*EL FILE
S, E
*END STEP
