** cdm3d ? test_ccx_mc ? sinh tu dong, xem scripts/cdm3d/ccx_input.py
** zone=KE  element=C3D4  don vi: kN-m-s (kPa)
*NODE, NSET=NALL
1, -4.000000, -4.000000, 0.000000
2, -4.000000, -4.000000, 0.800000
3, -4.000000, 4.000000, 0.800000
4, -4.000000, 4.000000, 0.000000
5, 4.000000, -4.000000, 0.000000
6, 4.000000, -4.000000, 0.800000
7, 4.000000, 4.000000, 0.800000
8, 0.400000, -0.000000, 0.800000
9, 4.000000, 4.000000, 0.000000
10, 0.400000, -0.000000, 0.000000
11, -4.000000, -4.000000, -23.000000
12, -4.000000, 4.000000, -23.000000
13, 4.000000, -4.000000, -23.000000
14, 4.000000, 4.000000, -23.000000
15, 0.400000, -0.000000, -23.000000
16, -4.000000, -4.000000, -28.000000
17, -4.000000, 4.000000, -28.000000
18, 4.000000, -4.000000, -28.000000
19, 4.000000, 4.000000, -28.000000
20, 0.400000, -0.000000, -24.000000
** ... 4259 like lines cut
*ELEMENT, TYPE=C3D4, ELSET=SOIL_dat_dap
1, 283, 1462, 344, 1465
2, 309, 1465, 371, 1466
3, 248, 370, 1465, 1466
4, 375, 369, 1464, 1477
5, 277, 338, 1462, 1476
6, 285, 346, 1471, 1478
7, 61, 357, 375, 1460
8, 374, 357, 62, 1460
9, 371, 1465, 356, 1466
10, 356, 1465, 370, 1466
11, 25, 24, 298, 1459
12, 22, 237, 21, 1459
13, 254, 374, 62, 1460
14, 375, 315, 61, 1460
15, 375, 357, 369, 1477
16, 316, 361, 1461, 1463
17, 366, 376, 1462, 1465
18, 357, 375, 1460, 1464
19, 374, 357, 1460, 1464
20, 312, 1460, 251, 1471
** ... 643 like lines cut
*ELEMENT, TYPE=C3D4, ELSET=CDM_COLUMN
664, 360, 388, 371, 1479
665, 366, 370, 381, 1479
666, 366, 381, 358, 1479
667, 61, 373, 388, 1479
668, 388, 373, 371, 1479
669, 382, 374, 368, 1479
670, 365, 359, 382, 1479
671, 365, 382, 368, 1479
672, 388, 360, 385, 1479
673, 62, 374, 384, 1479
674, 360, 371, 376, 1479
675, 365, 368, 377, 1479
676, 376, 370, 366, 1479
677, 381, 370, 384, 1479
678, 378, 361, 364, 1479
679, 364, 360, 380, 1479
680, 368, 374, 357, 1479
681, 364, 385, 360, 1479
682, 369, 357, 375, 1479
683, 362, 377, 369, 1479
** ... 2414 like lines cut
*ELEMENT, TYPE=C3D4, ELSET=SOIL_dat_yeu
776, 1959, 2065, 1698, 2949
777, 2429, 2613, 1841, 2640
778, 1109, 2215, 2214, 2216
779, 1938, 2730, 2096, 3404
780, 2179, 1841, 2613, 2640
781, 1179, 2831, 2075, 3048
782, 1887, 2140, 1832, 2313
783, 1724, 2105, 2061, 2709
784, 1293, 2137, 1919, 3094
785, 662, 3058, 2828, 3146
786, 691, 2012, 732, 2963
787, 1723, 2118, 1924, 2176
788, 2116, 2199, 1925, 3212
789, 901, 1987, 1160, 2250
790, 1211, 2764, 1212, 3459
791, 1268, 1231, 2335, 2892
792, 1825, 2442, 2440, 3276
793, 143, 2452, 1823, 2909
794, 1710, 2749, 2276, 3465
795, 766, 2495, 2285, 2547
** ... 17321 like lines cut
*ELEMENT, TYPE=C3D4, ELSET=SOIL_lop_cung
20309, 3905, 4001, 3872, 4207
20310, 3800, 3915, 4043, 4140
20311, 3867, 3963, 3868, 4158
20312, 3836, 4008, 3915, 4062
20313, 3826, 3993, 1400, 4061
20314, 3887, 3915, 3836, 4008
20315, 3836, 4043, 3915, 4140
20316, 3784, 3915, 4008, 4062
20317, 3774, 3905, 3866, 3946
20318, 3855, 3975, 3939, 4095
20319, 3798, 3845, 4026, 4248
20320, 3814, 3925, 4050, 4120
20321, 579, 4020, 3924, 4265
20322, 4129, 4169, 4141, 4235
20323, 3770, 3961, 4099, 4187
20324, 1406, 3839, 1413, 3948
20325, 3773, 4097, 3843, 4185
20326, 3784, 3915, 3887, 4008
20327, 3829, 3777, 3950, 4077
20328, 3829, 4003, 3777, 4077
** ... 3836 like lines cut
*MATERIAL, NAME=MAT_SOIL_dat_dap
*ELASTIC
8000.000, 0.300
*DENSITY
1.936799
*SOLID SECTION, ELSET=SOIL_dat_dap, MATERIAL=MAT_SOIL_dat_dap
*MATERIAL, NAME=MAT_CDM_COLUMN
*ELASTIC
40000.000, 0.250
*DENSITY
1.834862
*SOLID SECTION, ELSET=CDM_COLUMN, MATERIAL=MAT_CDM_COLUMN
*MATERIAL, NAME=MAT_SOIL_dat_yeu
*ELASTIC
3450.000, 0.350
*MOHR COULOMB
0.000, 0.000, 293.
*MOHR COULOMB HARDENING
12.938, 0., 293.
*DENSITY
1.558716
*SOLID SECTION, ELSET=SOIL_dat_yeu, MATERIAL=MAT_SOIL_dat_yeu
*MATERIAL, NAME=MAT_SOIL_lop_cung
*ELASTIC
27600.000, 0.350
*DENSITY
1.936799
*SOLID SECTION, ELSET=SOIL_lop_cung, MATERIAL=MAT_SOIL_lop_cung
*NSET, NSET=SIDE_XMIN
1, 2, 3, 4, 11, 12, 16, 17, 21, 22
23, 24, 25, 26, 63, 64, 65, 66, 67, 68
69, 70, 71, 72, 73, 74, 75, 76, 77, 78
79, 80, 81, 82, 83, 84, 85, 86, 87, 203
204, 205, 206, 207, 208, 209, 389, 390, 391, 392
393, 394, 395, 396, 397, 398, 399, 400, 401, 402
403, 404, 405, 406, 407, 408, 409, 410, 411, 412
413, 414, 415, 416, 417, 418, 419, 420, 421, 422
423, 424, 425, 426, 427, 428, 429, 430, 431, 432
1323, 1324, 1325, 1326, 1327, 1328, 1329, 1330, 1331, 1332
*NSET, NSET=SIDE_YMIN
1, 2, 5, 6, 11, 13, 16, 18, 27, 28
29, 30, 31, 32, 63, 64, 65, 66, 67, 68
69, 70, 71, 72, 73, 88, 89, 90, 91, 92
93, 94, 95, 96, 97, 98, 99, 100, 101, 203
204, 210, 211, 212, 213, 214, 433, 434, 435, 436
437, 438, 439, 440, 441, 442, 443, 444, 445, 446
447, 448, 449, 450, 451, 452, 453, 454, 455, 456
457, 458, 459, 460, 461, 462, 463, 464, 465, 466
467, 468, 469, 470, 471, 472, 473, 474, 475, 476
477, 478, 1333, 1334, 1335, 1336, 1337, 1338, 1339, 1340
1341, 1342
*NSET, NSET=TOP_SOIL
2, 3, 6, 7, 8, 21, 22, 23, 30, 31
32, 33, 34, 35, 36, 37, 38, 39, 40, 41
42, 43, 44, 45, 46, 234, 235, 236, 237, 238
239, 240, 241, 242, 243, 244, 245, 246, 247, 248
249, 250, 251, 252, 253, 254, 255, 256, 257, 258
259, 260, 261, 262, 263, 264, 265, 266, 267, 268
269, 270, 271, 272, 273, 274, 275, 276, 277, 278
279, 280, 281, 282, 283, 284, 285, 286, 287, 288
289, 290, 291, 292, 293, 294
*NSET, NSET=SIDE_YMAX
3, 4, 7, 9, 12, 14, 17, 19, 33, 34
35, 47, 48, 49, 74, 75, 76, 77, 78, 79
80, 81, 82, 83, 84, 102, 103, 104, 105, 106
107, 108, 109, 110, 111, 112, 113, 114, 115, 205
206, 215, 216, 217, 218, 219, 479, 480, 481, 482
483, 484, 485, 486, 487, 488, 489, 490, 491, 492
493, 494, 495, 496, 497, 498, 499, 500, 501, 502
503, 504, 505, 506, 507, 508, 509, 510, 511, 512
513, 514, 515, 516, 517, 518, 519, 520, 521, 522
523, 524, 1343, 1344, 1345, 1346, 1347, 1348, 1349, 1350
1351, 1352
*NSET, NSET=SIDE_XMAX
5, 6, 7, 9, 13, 14, 18, 19, 36, 37
38, 50, 51, 52, 91, 92, 93, 94, 95, 96
97, 98, 99, 100, 101, 105, 106, 107, 108, 109
110, 111, 112, 113, 114, 115, 116, 117, 118, 213
214, 218, 219, 220, 221, 222, 586, 587, 588, 589
590, 591, 592, 593, 594, 595, 596, 597, 598, 599
600, 601, 602, 603, 604, 605, 606, 607, 608, 609
610, 611, 612, 613, 614, 615, 616, 617, 618, 619
620, 621, 622, 623, 624, 625, 626, 627, 628, 629
1417, 1418, 1419, 1420, 1421, 1422, 1423, 1424, 1425, 1426
*NSET, NSET=TOP_COLUMN
8, 39, 40, 41, 42, 43, 44, 45, 46, 381
382, 383, 384
*NSET, NSET=BASE
16, 17, 18, 19, 207, 208, 209, 210, 211, 212
215, 216, 217, 220, 221, 222, 1353, 1354, 1355, 1356
1357, 1358, 1359, 1360, 1361, 1362, 1363, 1364, 1365, 1366
1367, 1368, 1369, 1370, 1371, 1372, 1373, 1374, 1375, 1376
1377, 1378, 1379, 1380, 1381, 1382, 1383, 1384, 1385, 1386
1387, 1388, 1389, 1390, 1391, 1392, 1393, 1394, 1395, 1396
1397, 1398, 1399, 1400, 1401, 1402, 1403, 1404, 1405, 1406
1407, 1408, 1409, 1410, 1411, 1412, 1413, 1414, 1415, 1416
*BOUNDARY
BASE, 1, 3
SIDE_XMIN, 1, 1
SIDE_XMAX, 1, 1
SIDE_YMIN, 2, 2
SIDE_YMAX, 2, 2
*NSET, NSET=ORPHAN
381, 382, 383, 384, 385, 386, 387, 388, 1319, 1320
1321, 1322, 1479, 3703, 3704, 3705, 3706, 3707, 3708, 3709
3710, 3711, 3712, 3713, 3714, 3715, 3716, 3717, 3718, 3719
3720, 3721, 3722, 3723, 3724, 3725, 3726, 3727, 3728, 3729
3730, 3731, 3732, 3733, 3734, 3735, 3736, 3737, 3738, 3739
3740, 3741, 3742, 3743, 3744, 3745, 3746, 3747, 3748, 3749
3750, 3751, 3752, 3753, 3754, 3755, 3756, 3757, 3758, 3759
3760, 3761, 3762, 4278, 4279
*STEP
*STATIC
*NODE FILE
U
*END STEP
*STEP, NLGEOM
*STATIC
*MODEL CHANGE, TYPE=ELEMENT, REMOVE
CDM_COLUMN
*BOUNDARY
ORPHAN, 1, 3
*NODE FILE
U
*END STEP
*STEP, NLGEOM
*STATIC
*MODEL CHANGE, TYPE=ELEMENT, ADD
CDM_COLUMN
*BOUNDARY, OP=NEW
BASE, 1, 3
SIDE_XMIN, 1, 1
SIDE_XMAX, 1, 1
SIDE_YMIN, 2, 2
SIDE_YMAX, 2, 2
*NODE FILE
U
*END STEP
*STEP, NLGEOM
*STATIC
*CLOAD
2, 3, -15.929426
3, 3, -15.929426
6, 3, -15.929426
7, 3, -15.929426
8, 3, -0.639498
21, 3, -23.297909
22, 3, -27.746271
23, 3, -24.621720
30, 3, -24.603922
31, 3, -27.774890
32, 3, -23.339546
33, 3, -23.670644
34, 3, -27.900845
35, 3, -24.439058
36, 3, -23.894138
37, 3, -27.107021
38, 3, -23.184302
39, 3, -0.865203
40, 3, -1.186802
41, 3, -1.218164
** ... 70 like lines cut
*NODE FILE
U
*EL FILE
S, E
*END STEP
*STEP, NLGEOM
*STATIC
*CLOAD
2, 3, -14.187145
3, 3, -14.187145
6, 3, -45.548201
7, 3, -45.548201
8, 3, -1.262010
21, 3, -20.749700
22, 3, -24.711523
23, 3, -21.928719
30, 3, -34.022610
31, 3, -52.077919
32, 3, -55.249082
33, 3, -32.732063
34, 3, -52.314084
35, 3, -57.851833
36, 3, -68.322302
37, 3, -77.509137
38, 3, -66.292615
39, 3, -1.687498
40, 3, -2.245541
41, 3, -2.224102
** ... 70 like lines cut
*NODE FILE
U
*EL FILE
S, E
*END STEP
*STEP, NLGEOM
*STATIC
*CLOAD
2, 3, -3.982356
3, 3, -3.982356
6, 3, -75.664771
7, 3, -75.664771
8, 3, -1.742633
21, 3, -5.824477
22, 3, -6.936568
23, 3, -6.155430
30, 3, -33.830392
31, 3, -69.437225
32, 3, -84.605856
33, 3, -32.547136
34, 3, -69.752112
35, 3, -88.591586
36, 3, -113.497157
37, 3, -128.758348
38, 3, -110.125436
39, 3, -2.312133
40, 3, -3.013375
41, 3, -2.908367
** ... 70 like lines cut
*NODE FILE
U
*EL FILE
S, E
*END STEP
*STEP, NLGEOM
*STATIC
*CLOAD
6, 3, -39.823564
7, 3, -39.823564
8, 3, -1.598746
31, 3, -69.437225
32, 3, -58.348866
34, 3, -69.752112
35, 3, -61.097645
36, 3, -59.735346
37, 3, -67.767551
38, 3, -57.960756
39, 3, -2.163006
40, 3, -2.967006
45, 3, -2.396885
46, 3, -2.965197
234, 3, -103.253774
235, 3, -105.718558
238, 3, -112.388610
240, 3, -107.151260
246, 3, -27.012633
247, 3, -25.894812
** ... 28 like lines cut
*NODE FILE
U
*EL FILE
S, E
*END STEP
